*SPEF "IEEE 1481-1998"
*DESIGN "bk_adder_32bit"
*DATE "Wed Apr  6 15:39:14 2022"
*VENDOR "Cadence Design Systems, Inc."
*PROGRAM "Innovus"
*VERSION "20.10-p004_1"
*DESIGN_FLOW "PIN_CAP NONE" "NAME_SCOPE LOCAL"
*DIVIDER /
*DELIMITER :
*BUS_DELIMITER []
*T_UNIT 1 NS
*C_UNIT 1 PF
*R_UNIT 1 OHM
*L_UNIT 1 HENRY

// MMMC spef file for corner 'rc_worst'

*NAME_MAP

*1 a[31]
*2 a[30]
*3 a[29]
*4 a[28]
*5 a[27]
*6 a[26]
*7 a[25]
*8 a[24]
*9 a[23]
*10 a[22]
*11 a[21]
*12 a[20]
*13 a[19]
*14 a[18]
*15 a[17]
*16 a[16]
*17 a[15]
*18 a[14]
*19 a[13]
*20 a[12]
*21 a[11]
*22 a[10]
*23 a[9]
*24 a[8]
*25 a[7]
*26 a[6]
*27 a[5]
*28 a[4]
*29 a[3]
*30 a[2]
*31 a[1]
*32 a[0]
*33 b[31]
*34 b[30]
*35 b[29]
*36 b[28]
*37 b[27]
*38 b[26]
*39 b[25]
*40 b[24]
*41 b[23]
*42 b[22]
*43 b[21]
*44 b[20]
*45 b[19]
*46 b[18]
*47 b[17]
*48 b[16]
*49 b[15]
*50 b[14]
*51 b[13]
*52 b[12]
*53 b[11]
*54 b[10]
*55 b[9]
*56 b[8]
*57 b[7]
*58 b[6]
*59 b[5]
*60 b[4]
*61 b[3]
*62 b[2]
*63 b[1]
*64 b[0]
*65 sum[31]
*66 sum[30]
*67 sum[29]
*68 sum[28]
*69 sum[27]
*70 sum[26]
*71 sum[25]
*72 sum[24]
*73 sum[23]
*74 sum[22]
*75 sum[21]
*76 sum[20]
*77 sum[19]
*78 sum[18]
*79 sum[17]
*80 sum[16]
*81 sum[15]
*82 sum[14]
*83 sum[13]
*84 sum[12]
*85 sum[11]
*86 sum[10]
*87 sum[9]
*88 sum[8]
*89 sum[7]
*90 sum[6]
*91 sum[5]
*92 sum[4]
*93 sum[3]
*94 sum[2]
*95 sum[1]
*96 sum[0]
*97 cin
*98 cout
*99 level1_g_31_
*100 level1_g_29
*101 level1_g_27
*102 level1_g_25
*103 level1_g_23
*104 level1_g_21
*105 level1_g_19
*106 level1_g_17
*107 level1_g_15
*108 level1_g_13
*109 level1_g_11
*110 level1_g_9
*111 level1_g_7
*112 level1_g_5
*113 level1_g_3
*114 level1_g_1
*115 level1_p_31_
*116 level1_p_29
*117 level1_p_27
*118 level1_p_25
*119 level1_p_23
*120 level1_p_21
*121 level1_p_19
*122 level1_p_17
*123 level1_p_15
*124 level1_p_13
*125 level1_p_11
*126 level1_p_9
*127 level1_p_7
*128 level1_p_5
*129 level1_p_3
*130 level2_g_31
*131 level2_g_27
*132 level2_g_23
*133 level2_g_19
*134 level2_g_15
*135 level2_g_11
*136 level2_g_7
*137 level2_p_31
*138 level2_p_27
*139 level2_p_23
*140 level2_p_19
*141 level2_p_15
*142 level2_p_11
*143 level2_p_7
*144 level3_g_31
*145 level3_g_23
*146 level3_g_15
*147 level3_g_7
*148 level3_p_31
*149 level3_p_23
*150 level3_p_15
*151 level4_g_31
*152 level4_g_15
*153 level4_g_11
*154 level4_g_6
*155 level4_p_31
*156 level5_g_23
*157 level5_g_19
*158 level5_g_13
*159 level5_g_12
*160 level5_g_10
*161 level6_g_27
*162 level6_g_21
*163 level6_g_20
*164 level6_g_18
*165 level6_g_14
*166 level7_g_26
*167 level7_g_22
*168 p_i[31]
*169 p_i[30]
*170 p_i[29]
*171 p_i[28]
*172 p_i[27]
*173 p_i[26]
*174 p_i[25]
*175 p_i[24]
*176 p_i[23]
*177 p_i[22]
*178 p_i[21]
*179 p_i[20]
*180 p_i[19]
*181 p_i[18]
*182 p_i[17]
*183 p_i[16]
*184 p_i[15]
*185 p_i[14]
*186 p_i[13]
*187 p_i[12]
*188 p_i[11]
*189 p_i[10]
*190 p_i[9]
*191 p_i[8]
*192 p_i[7]
*193 p_i[6]
*194 p_i[5]
*195 p_i[4]
*196 p_i[3]
*197 p_i[2]
*198 p_i[1]
*199 p_i[0]
*200 g_i[31]
*201 g_i[30]
*202 g_i[29]
*203 g_i[28]
*204 g_i[27]
*205 g_i[26]
*206 g_i[25]
*207 g_i[24]
*208 g_i[23]
*209 g_i[22]
*210 g_i[21]
*211 g_i[20]
*212 g_i[19]
*213 g_i[18]
*214 g_i[17]
*215 g_i[16]
*216 g_i[15]
*217 g_i[14]
*218 g_i[13]
*219 g_i[12]
*220 g_i[11]
*221 g_i[10]
*222 g_i[9]
*223 g_i[8]
*224 g_i[7]
*225 g_i[6]
*226 g_i[5]
*227 g_i[4]
*228 g_i[3]
*229 g_i[2]
*230 g_i[1]
*231 level2_g[3]
*232 level2_g[2]
*233 level3_g[5]
*234 level3_g[4]
*235 level4_g[9]
*236 level4_g[8]
*237 level5_g[17]
*238 level5_g[16]
*239 level6_g[25]
*240 level6_g[24]
*241 level7_g[29]
*242 level7_g[28]
*243 DO/n2
*244 level1_dot_operator_forward_tree_3__DO1/n1
*245 level1_dot_operator_forward_tree_5__DO1/n1
*246 level1_dot_operator_forward_tree_7__DO1/n1
*247 level1_dot_operator_forward_tree_9__DO1/n1
*248 level1_dot_operator_forward_tree_11__DO1/n1
*249 level1_dot_operator_forward_tree_13__DO1/n1
*250 level1_dot_operator_forward_tree_15__DO1/n1
*251 level1_dot_operator_forward_tree_17__DO1/n1
*252 level1_dot_operator_forward_tree_19__DO1/n1
*253 level1_dot_operator_forward_tree_21__DO1/n1
*254 level1_dot_operator_forward_tree_23__DO1/n1
*255 level1_dot_operator_forward_tree_25__DO1/n1
*256 level1_dot_operator_forward_tree_27__DO1/n1
*257 level1_dot_operator_forward_tree_29__DO1/n1
*258 level1_dot_operator_forward_tree_31__DO1/n1
*259 RTDO2/n1
*260 level2_dot_operator_forward_tree_3__DO2/n1
*261 level2_dot_operator_forward_tree_7__DO2/n1
*262 level2_dot_operator_forward_tree_11__DO2/n1
*263 level2_dot_operator_forward_tree_15__DO2/n1
*264 level2_dot_operator_forward_tree_19__DO2/n1
*265 level2_dot_operator_forward_tree_23__DO2/n1
*266 level2_dot_operator_forward_tree_27__DO2/n1
*267 level2_dot_operator_forward_tree_31__DO2/n1
*268 RTDO3/n1
*269 RTDO3_1/n1
*270 level3_dot_operator_forward_tree_7__DO3/n1
*271 level3_dot_operator_forward_tree_15__DO3/n1
*272 level3_dot_operator_forward_tree_23__DO3/n1
*273 level3_dot_operator_forward_tree_31__DO3/n1
*274 RTDO4/n1
*275 RTDO4_1/n1
*276 RTDO4_2/n1
*277 RTDO4_3/n1
*278 DO4/n1
*279 DO4_1/n1
*280 RTDO5/n1
*281 RTDO5_1/n1
*282 RTDO5_2/n1
*283 RTDO5_3/n1
*284 RTDO5_4/n1
*285 RTDO5_5/n1
*286 RTDO5_6/n1
*287 DO5/n1
*288 RTDO6/n1
*289 RTDO6_1/n1
*290 RTDO6_2/n1
*291 RTDO6_3/n1
*292 RTDO6_4/n1
*293 RTDO6_5/n1
*294 RTDO6_6/n1
*295 RTDO7/n1
*296 RTDO7_1/n1
*297 RTDO7_2/n1
*298 RTDO7_3/n1
*299 PG_generate_0__PG/U2
*300 PG_generate_1__PG/U2
*301 PG_generate_1__PG/U1
*302 PG_generate_2__PG/U2
*303 PG_generate_2__PG/U1
*304 PG_generate_3__PG/U2
*305 PG_generate_3__PG/U1
*306 PG_generate_4__PG/U2
*307 PG_generate_4__PG/U1
*308 PG_generate_5__PG/U2
*309 PG_generate_5__PG/U1
*310 PG_generate_6__PG/U2
*311 PG_generate_6__PG/U1
*312 PG_generate_7__PG/U2
*313 PG_generate_7__PG/U1
*314 PG_generate_8__PG/U2
*315 PG_generate_8__PG/U1
*316 PG_generate_9__PG/U2
*317 PG_generate_9__PG/U1
*318 PG_generate_10__PG/U2
*319 PG_generate_10__PG/U1
*320 PG_generate_11__PG/U2
*321 PG_generate_11__PG/U1
*322 PG_generate_12__PG/U2
*323 PG_generate_12__PG/U1
*324 PG_generate_13__PG/U2
*325 PG_generate_13__PG/U1
*326 PG_generate_14__PG/U2
*327 PG_generate_14__PG/U1
*328 PG_generate_15__PG/U2
*329 PG_generate_15__PG/U1
*330 PG_generate_16__PG/U2
*331 PG_generate_16__PG/U1
*332 PG_generate_17__PG/U2
*333 PG_generate_17__PG/U1
*334 PG_generate_18__PG/U2
*335 PG_generate_18__PG/U1
*336 PG_generate_19__PG/U2
*337 PG_generate_19__PG/U1
*338 PG_generate_20__PG/U2
*339 PG_generate_20__PG/U1
*340 PG_generate_21__PG/U2
*341 PG_generate_21__PG/U1
*342 PG_generate_22__PG/U2
*343 PG_generate_22__PG/U1
*344 PG_generate_23__PG/U2
*345 PG_generate_23__PG/U1
*346 PG_generate_24__PG/U2
*347 PG_generate_24__PG/U1
*348 PG_generate_25__PG/U2
*349 PG_generate_25__PG/U1
*350 PG_generate_26__PG/U2
*351 PG_generate_26__PG/U1
*352 PG_generate_27__PG/U2
*353 PG_generate_27__PG/U1
*354 PG_generate_28__PG/U2
*355 PG_generate_28__PG/U1
*356 PG_generate_29__PG/U2
*357 PG_generate_29__PG/U1
*358 PG_generate_30__PG/U2
*359 PG_generate_30__PG/U1
*360 PG_generate_31__PG/U2
*361 PG_generate_31__PG/U1
*362 DO/U1
*363 DO/U2
*364 level1_dot_operator_forward_tree_3__DO1/U1
*365 level1_dot_operator_forward_tree_3__DO1/U2
*366 level1_dot_operator_forward_tree_3__DO1/U3
*367 level1_dot_operator_forward_tree_5__DO1/U1
*368 level1_dot_operator_forward_tree_5__DO1/U2
*369 level1_dot_operator_forward_tree_5__DO1/U3
*370 level1_dot_operator_forward_tree_7__DO1/U1
*371 level1_dot_operator_forward_tree_7__DO1/U2
*372 level1_dot_operator_forward_tree_7__DO1/U3
*373 level1_dot_operator_forward_tree_9__DO1/U1
*374 level1_dot_operator_forward_tree_9__DO1/U2
*375 level1_dot_operator_forward_tree_9__DO1/U3
*376 level1_dot_operator_forward_tree_11__DO1/U1
*377 level1_dot_operator_forward_tree_11__DO1/U2
*378 level1_dot_operator_forward_tree_11__DO1/U3
*379 level1_dot_operator_forward_tree_13__DO1/U1
*380 level1_dot_operator_forward_tree_13__DO1/U2
*381 level1_dot_operator_forward_tree_13__DO1/U3
*382 level1_dot_operator_forward_tree_15__DO1/U1
*383 level1_dot_operator_forward_tree_15__DO1/U2
*384 level1_dot_operator_forward_tree_15__DO1/U3
*385 level1_dot_operator_forward_tree_17__DO1/U1
*386 level1_dot_operator_forward_tree_17__DO1/U2
*387 level1_dot_operator_forward_tree_17__DO1/U3
*388 level1_dot_operator_forward_tree_19__DO1/U1
*389 level1_dot_operator_forward_tree_19__DO1/U2
*390 level1_dot_operator_forward_tree_19__DO1/U3
*391 level1_dot_operator_forward_tree_21__DO1/U1
*392 level1_dot_operator_forward_tree_21__DO1/U2
*393 level1_dot_operator_forward_tree_21__DO1/U3
*394 level1_dot_operator_forward_tree_23__DO1/U1
*395 level1_dot_operator_forward_tree_23__DO1/U2
*396 level1_dot_operator_forward_tree_23__DO1/U3
*397 level1_dot_operator_forward_tree_25__DO1/U1
*398 level1_dot_operator_forward_tree_25__DO1/U2
*399 level1_dot_operator_forward_tree_25__DO1/U3
*400 level1_dot_operator_forward_tree_27__DO1/U1
*401 level1_dot_operator_forward_tree_27__DO1/U2
*402 level1_dot_operator_forward_tree_27__DO1/U3
*403 level1_dot_operator_forward_tree_29__DO1/U1
*404 level1_dot_operator_forward_tree_29__DO1/U2
*405 level1_dot_operator_forward_tree_29__DO1/U3
*406 level1_dot_operator_forward_tree_31__DO1/U1
*407 level1_dot_operator_forward_tree_31__DO1/U2
*408 level1_dot_operator_forward_tree_31__DO1/U3
*409 RTDO2/U1
*410 RTDO2/U2
*411 level2_dot_operator_forward_tree_3__DO2/U1
*412 level2_dot_operator_forward_tree_3__DO2/U2
*413 level2_dot_operator_forward_tree_7__DO2/U1
*414 level2_dot_operator_forward_tree_7__DO2/U2
*415 level2_dot_operator_forward_tree_7__DO2/U3
*416 level2_dot_operator_forward_tree_11__DO2/U1
*417 level2_dot_operator_forward_tree_11__DO2/U2
*418 level2_dot_operator_forward_tree_11__DO2/U3
*419 level2_dot_operator_forward_tree_15__DO2/U1
*420 level2_dot_operator_forward_tree_15__DO2/U2
*421 level2_dot_operator_forward_tree_15__DO2/U3
*422 level2_dot_operator_forward_tree_19__DO2/U1
*423 level2_dot_operator_forward_tree_19__DO2/U2
*424 level2_dot_operator_forward_tree_19__DO2/U3
*425 level2_dot_operator_forward_tree_23__DO2/U1
*426 level2_dot_operator_forward_tree_23__DO2/U2
*427 level2_dot_operator_forward_tree_23__DO2/U3
*428 level2_dot_operator_forward_tree_27__DO2/U1
*429 level2_dot_operator_forward_tree_27__DO2/U2
*430 level2_dot_operator_forward_tree_27__DO2/U3
*431 level2_dot_operator_forward_tree_31__DO2/U1
*432 level2_dot_operator_forward_tree_31__DO2/U2
*433 level2_dot_operator_forward_tree_31__DO2/U3
*434 RTDO3/U1
*435 RTDO3/U2
*436 RTDO3_1/U2
*437 RTDO3_1/U3
*438 level3_dot_operator_forward_tree_7__DO3/U2
*439 level3_dot_operator_forward_tree_7__DO3/U3
*440 level3_dot_operator_forward_tree_15__DO3/U1
*441 level3_dot_operator_forward_tree_15__DO3/U2
*442 level3_dot_operator_forward_tree_15__DO3/U3
*443 level3_dot_operator_forward_tree_23__DO3/U1
*444 level3_dot_operator_forward_tree_23__DO3/U2
*445 level3_dot_operator_forward_tree_23__DO3/U3
*446 level3_dot_operator_forward_tree_31__DO3/U1
*447 level3_dot_operator_forward_tree_31__DO3/U2
*448 level3_dot_operator_forward_tree_31__DO3/U3
*449 RTDO4/U1
*450 RTDO4/U2
*451 RTDO4_1/U1
*452 RTDO4_1/U2
*453 RTDO4_2/U2
*454 RTDO4_2/U3
*455 RTDO4_3/U2
*456 RTDO4_3/U3
*457 DO4/U2
*458 DO4/U3
*459 DO4_1/U1
*460 DO4_1/U2
*461 DO4_1/U3
*462 RTDO5/U1
*463 RTDO5/U2
*464 RTDO5_1/U1
*465 RTDO5_1/U2
*466 RTDO5_2/U2
*467 RTDO5_2/U3
*468 RTDO5_3/U1
*469 RTDO5_3/U2
*470 RTDO5_4/U2
*471 RTDO5_4/U3
*472 RTDO5_5/U2
*473 RTDO5_5/U3
*474 RTDO5_6/U2
*475 RTDO5_6/U3
*476 DO5/U2
*477 DO5/U3
*478 RTDO6/U1
*479 RTDO6/U2
*480 RTDO6_1/U1
*481 RTDO6_1/U2
*482 RTDO6_2/U1
*483 RTDO6_2/U2
*484 RTDO6_3/U2
*485 RTDO6_3/U3
*486 RTDO6_4/U1
*487 RTDO6_4/U2
*488 RTDO6_5/U2
*489 RTDO6_5/U3
*490 RTDO6_6/U2
*491 RTDO6_6/U3
*492 RTDO7/U1
*493 RTDO7/U2
*494 RTDO7_1/U1
*495 RTDO7_1/U2
*496 RTDO7_2/U1
*497 RTDO7_2/U2
*498 RTDO7_3/U2
*499 RTDO7_3/U3
*500 U2
*501 U3
*502 U4
*503 U5
*504 U6
*505 U7
*506 U8
*507 U9
*508 U10
*509 U11
*510 U12
*511 U13
*512 U14
*513 U15
*514 U16
*515 U17
*516 U18
*517 U19
*518 U20
*519 U21
*520 U22
*521 U23
*522 U24
*523 U25
*524 U26
*525 U27
*526 U28
*527 U29
*528 U30
*529 U31
*530 U32
*531 U33


*PORTS

*1 I *C 18.64 0
*2 I *C 16.12 0
*3 I *C 13.6 0
*4 I *C 11.08 0
*5 I *C 8.56 0
*6 I *C 6.04 0
*7 I *C 3.52 0
*8 I *C 1 0
*9 I *C 0 28.72
*10 I *C 0 26.2
*11 I *C 0 23.68
*12 I *C 0 21.16
*13 I *C 0 18.64
*14 I *C 0 16.12
*15 I *C 0 13.6
*16 I *C 0 11.08
*17 I *C 0 8.56
*18 I *C 0 6.04
*19 I *C 0 3.52
*20 I *C 0 1
*21 I *C 29.98 31.64
*22 I *C 27.46 31.64
*23 I *C 24.94 31.64
*24 I *C 22.42 31.64
*25 I *C 19.9 31.64
*26 I *C 17.38 31.64
*27 I *C 14.86 31.64
*28 I *C 12.34 31.64
*29 I *C 9.82 31.64
*30 I *C 7.3 31.64
*31 I *C 4.78 31.64
*32 I *C 2.26 31.64
*33 I *C 19.9 0
*34 I *C 17.38 0
*35 I *C 14.86 0
*36 I *C 12.34 0
*37 I *C 9.82 0
*38 I *C 7.3 0
*39 I *C 4.78 0
*40 I *C 2.26 0
*41 I *C 0 29.98
*42 I *C 0 27.46
*43 I *C 0 24.94
*44 I *C 0 22.42
*45 I *C 0 19.9
*46 I *C 0 17.38
*47 I *C 0 14.86
*48 I *C 0 12.34
*49 I *C 0 9.82
*50 I *C 0 7.3
*51 I *C 0 4.78
*52 I *C 0 2.26
*53 I *C 31.24 31.64
*54 I *C 28.72 31.64
*55 I *C 26.2 31.64
*56 I *C 23.68 31.64
*57 I *C 21.16 31.64
*58 I *C 18.64 31.64
*59 I *C 16.12 31.64
*60 I *C 13.6 31.64
*61 I *C 11.08 31.64
*62 I *C 8.56 31.64
*63 I *C 6.04 31.64
*64 I *C 3.52 31.64
*97 I *C 1 31.64
*65 O *C 21.16 0
*66 O *C 22.42 0
*67 O *C 23.68 0
*68 O *C 24.94 0
*69 O *C 26.2 0
*70 O *C 27.46 0
*71 O *C 28.72 0
*72 O *C 29.98 0
*73 O *C 33.63 1
*74 O *C 33.63 2.26
*75 O *C 33.63 3.52
*76 O *C 33.63 4.78
*77 O *C 33.63 6.04
*78 O *C 33.63 7.3
*79 O *C 33.63 8.56
*80 O *C 33.63 9.82
*81 O *C 33.63 11.08
*82 O *C 33.63 12.34
*83 O *C 33.63 13.6
*84 O *C 33.63 14.86
*85 O *C 33.63 16.12
*86 O *C 33.63 17.38
*87 O *C 33.63 18.64
*88 O *C 33.63 19.9
*89 O *C 33.63 21.16
*90 O *C 33.63 22.42
*91 O *C 33.63 23.68
*92 O *C 33.63 24.94
*93 O *C 33.63 26.2
*94 O *C 33.63 27.46
*95 O *C 33.63 28.72
*96 O *C 33.63 29.98
*98 O *C 33.63 31.24


*D_NET *1 0.000630875

*CONN
*P *1 I *C 18.64 0 *L 0
*I *361:A2 I *C 20.96 6.895 *L 0.000939 *D AND2_X1
*I *360:B I *C 19.875 6.545 *L 0.00235 *D XOR2_X1

*CAP
1 *360:B 0.000133015
2 *1 1.29118e-05
3 *1:4 3.25951e-05
4 *1:6 2.51158e-05
5 *1:7 5.58077e-05
6 *1:9 1.40978e-05
7 *1:10 0.000313398
8 *1:11 3.46371e-05
9 *1:12 9.29171e-06

*RES
1 *1:3 *1:4 1.37329
2 *360:B *1:5 10.7117
3 *1:7 *1:9 0.904033
4 *1:8 *1:10 0.904033
5 *1:4 *1:7 9.99787
6 *1:9 *1:10 25.974
7 *1:6 *1:11 11.8036
8 *360:B *1:3 1.01184
9 *361:A2 *1:5 9.33203
10 *1:6 *1:8 1.99791
11 *1 *1:12 4.00018
12 *1:11 *1:12 6.6659
*END

*D_NET *2 0.000911811

*CONN
*P *2 I *C 16.12 0 *L 0
*I *359:A2 I *C 18.11 7.945 *L 0.000939 *D AND2_X1
*I *358:B I *C 18.355 9.345 *L 0.00235 *D XOR2_X1

*CAP
1 *2 6.18402e-05
2 *2:8 0.000222059
3 *2:9 0.000326725
4 *2:10 0.000187839
5 *2:12 0.00011335

*RES
1 *2:3 *2:4 1.80758
2 *2:5 *2:7 6.66008
3 *2:9 *2:11 12.9928
4 *2:5 *2:6 0.904002
5 *2:7 *2:8 0.904002
6 *358:B *2:3 12.662
7 *2:6 *2:10 1.99794
8 *2:4 *2:10 1.3321
9 *2:8 *2:9 27.972
10 *2 *2:13 1.25015
11 *2:12 *2:13 4.00015
12 *2:11 *2:12 6.66606
13 *359:A2 *2:10 7.99987
*END

*D_NET *3 0.000968726

*CONN
*P *3 I *C 13.6 0 *L 0
*I *357:A2 I *C 16.97 6.895 *L 0.000939 *D AND2_X1
*I *356:B I *C 17.785 6.545 *L 0.00235 *D XOR2_X1

*CAP
1 *356:B 8.07418e-05
2 *3 4.09555e-05
3 *3:5 0.000138885
4 *3:12 0.000327439
5 *3:13 0.000286993
6 *3:14 9.37125e-05

*RES
1 *3:3 *3:4 4.51928
2 *3:9 *3:11 2.23993
3 *3:8 *3:10 8.06606
4 *3:6 *3:7 1.33194
5 *3:7 *3:8 7.04065
6 *3:5 *3:6 11.1853
7 *3 *3:14 1.81
8 *356:B *3:3 10.6641
9 *3:11 *3:13 0.559982
10 *3:10 *3:12 0.559982
11 *3:12 *3:13 8.96005
12 *3:4 *3:5 1.33194
13 *3:9 *3:14 3.99992
14 *357:A2 *3:5 8.00001
*END

*D_NET *4 0.000745568

*CONN
*P *4 I *C 11.08 0 *L 0
*I *355:A2 I *C 15.07 6.895 *L 0.000939 *D AND2_X1
*I *354:B I *C 15.885 6.545 *L 0.00235 *D XOR2_X1

*CAP
1 *354:B 3.46725e-05
2 *4 2.09334e-05
3 *4:5 0.000118521
4 *4:6 0.000269417
5 *4:10 0.000189766
6 *4:11 0.00011226

*RES
1 *4:3 *4:4 1.37337
2 *354:B *4:3 1.0122
3 *355:A2 *4:5 9.99782
4 *4 *4:11 0.689887
5 *4:4 *4:5 11.6154
6 *4:5 *4:6 27.978
7 *4:7 *4:8 2.80011
8 *4:9 *4:10 10.7201
9 *4:6 *4:9 7.85515
10 *4:7 *4:10 4.55983
11 *4:8 *4:11 4.00015
*END

*D_NET *5 0.00065615

*CONN
*P *5 I *C 8.56 0 *L 0
*I *353:A2 I *C 9.94 6.895 *L 0.000939 *D AND2_X1
*I *352:B I *C 10.755 6.545 *L 0.00235 *D XOR2_X1

*CAP
1 *353:A2 0.00013419
2 *5 3.76961e-05
3 *5:3 0.000341029
4 *5:6 5.41036e-05
5 *5:8 8.91249e-05

*RES
1 *5:3 *5:6 30.636
2 *5 *5:9 1.25001
3 *5:4 *5:5 4.51948
4 *5:4 *5:6 1.99796
5 *5:3 *5:7 14.6103
6 *353:A2 *5:5 8.66593
7 *5:8 *5:9 4.00013
8 *5:7 *5:8 6.6661
9 *352:B *5:6 7.99978
*END

*D_NET *6 0.00063759

*CONN
*P *6 I *C 6.04 0 *L 0
*I *351:A2 I *C 7.28 6.895 *L 0.000939 *D AND2_X1
*I *350:B I *C 8.285 6.545 *L 0.00235 *D XOR2_X1

*CAP
1 *6 4.49258e-05
2 *6:3 4.39332e-05
3 *6:4 0.000369597
4 *6:7 0.00011915
5 *6:9 3.40355e-05
6 *6:10 2.59538e-05

*RES
1 *6:3 *6:4 29.304
2 *351:A2 *6:3 9.33189
3 *6:5 *6:7 12.089
4 *6:8 *6:9 0.559824
5 *6 *6:10 1.81004
6 *6:8 *6:10 4.00015
7 *6:6 *6:9 6.66602
8 *6:3 *6:7 6.66602
9 *6:4 *6:6 6.66602
10 *350:B *6:5 7.99985
*END

*D_NET *7 0.000883477

*CONN
*P *7 I *C 3.52 0 *L 0
*I *349:A2 I *C 6.52 7.945 *L 0.000939 *D AND2_X1
*I *348:B I *C 7.335 8.295 *L 0.00235 *D XOR2_X1

*CAP
1 *7 3.54867e-05
2 *7:4 0.000177162
3 *7:5 0.000355545
4 *7:6 0.000140802
5 *7:7 0.000174477

*RES
1 *7:3 *7:4 4.5194
2 *349:A2 *7:4 8.66605
3 *7 *7:8 0.689821
4 *348:B *7:3 9.99813
5 *7:4 *7:5 26.64
6 *7:5 *7:6 19.1296
7 *7:6 *7:7 10.866
8 *7:7 *7:8 3.9999
*END

*D_NET *8 0.00127488

*CONN
*P *8 I *C 1 0 *L 0
*I *347:A2 I *C 8.61 7.945 *L 0.000939 *D AND2_X1
*I *346:B I *C 7.905 9.345 *L 0.00235 *D XOR2_X1

*CAP
1 *8 7.69239e-05
2 *8:3 0.000352236
3 *8:6 0.000202584
4 *8:7 0.000406713
5 *8:8 0.000236425

*RES
1 *8:3 *8:6 21.978
2 *346:B *8:5 8.66572
3 *8 *8:9 1.80978
4 *8:4 *8:5 0.90401
5 *8:4 *8:6 5.32797
6 *8:3 *8:7 38.3961
7 *8:7 *8:8 13.1061
8 *8:8 *8:9 3.99979
9 *347:A2 *8:6 8.00016
*END

*D_NET *9 0.00131104

*CONN
*P *9 I *C 0 28.72 *L 0
*I *345:A2 I *C 7.85 20.895 *L 0.000939 *D AND2_X1
*I *344:B I *C 7.905 22.295 *L 0.00235 *D XOR2_X1

*CAP
1 *345:A2 0.000169755
2 *344:B 1.45185e-05
3 *9 2.47009e-05
4 *9:5 0.000233181
5 *9:6 0.000853334
6 *9:7 1.55471e-05

*RES
1 *9:3 *9:5 9.37373
2 *344:B *9:3 1.01174
3 *345:A2 *9:5 15.9917
4 *9 *9:8 0.870093
5 *9:4 *9:5 9.32378
6 *9:4 *9:6 41.4407
7 *9:7 *9:8 4.45986
8 *9:6 *9:7 14.7859
*END

*D_NET *10 0.00119391

*CONN
*P *10 I *C 0 26.2 *L 0
*I *343:A2 I *C 9.56 21.945 *L 0.000939 *D AND2_X1
*I *342:B I *C 8.855 20.545 *L 0.00235 *D XOR2_X1

*CAP
1 *342:B 0.000155717
2 *10 0.000475245
3 *10:6 8.68633e-05
4 *10:7 0.000476088

*RES
1 *10:3 *10:6 4.66202
2 *10 *10:9 13.75
3 *10:4 *10:5 0.903968
4 *10:4 *10:6 5.32786
5 *10:3 *10:7 18.9394
6 *10:7 *10:8 12.546
7 *10:8 *10:9 4.46002
8 *342:B *10:5 8.66601
9 *343:A2 *10:6 7.99989
*END

*D_NET *11 0.000748219

*CONN
*P *11 I *C 0 23.68 *L 0
*I *341:A2 I *C 6.71 21.945 *L 0.000939 *D AND2_X1
*I *340:B I *C 6.575 20.545 *L 0.00235 *D XOR2_X1

*CAP
1 *340:B 0.000159171
2 *11 2.41469e-05
3 *11:4 0.00012135
4 *11:5 0.000411993
5 *11:8 3.15651e-05

*RES
1 *11:3 *11:4 5.99377
2 *11:3 *11:5 36.0176
3 *11 *11:7 0.869993
4 *340:B *11:4 15.3257
5 *11:7 *11:8 0.460003
6 *11:6 *11:8 3.99988
7 *11:5 *11:6 6.66592
8 *341:A2 *11:4 7.99976
*END

*D_NET *12 0.000828181

*CONN
*P *12 I *C 0 21.16 *L 0
*I *339:A2 I *C 8.04 19.145 *L 0.000939 *D AND2_X1
*I *338:B I *C 9.045 19.495 *L 0.00235 *D XOR2_X1

*CAP
1 *339:A2 3.65802e-05
2 *12 5.29815e-05
3 *12:4 0.000257917
4 *12:6 0.000480706

*RES
1 *12:3 *12:4 5.42321
2 *339:A2 *12:4 8.66611
3 *12 *12:7 1.42996
4 *338:B *12:3 8.66611
5 *12:4 *12:5 13.9917
6 *12:5 *12:6 41.0126
7 *12:6 *12:7 4.4601
*END

*D_NET *13 0.000699987

*CONN
*P *13 I *C 0 18.64 *L 0
*I *337:A2 I *C 6.52 18.095 *L 0.000939 *D AND2_X1
*I *336:B I *C 7.525 17.745 *L 0.00235 *D XOR2_X1

*CAP
1 *337:A2 5.4362e-05
2 *336:B 6.50281e-05
3 *13 5.35153e-05
4 *13:5 6.07659e-05
5 *13:6 0.000466311

*RES
1 *13:3 *13:5 12.0893
2 *13 *13:7 1.42991
3 *336:B *13:3 11.33
4 *13:4 *13:5 8.66398
5 *13:5 *13:6 33.7817
6 *13:6 *13:7 4.45983
7 *337:A2 *13:4 8.00006
*END

*D_NET *14 0.000663997

*CONN
*P *14 I *C 0 16.12 *L 0
*I *335:A2 I *C 6.71 16.345 *L 0.000939 *D AND2_X1
*I *334:B I *C 6.575 14.945 *L 0.00235 *D XOR2_X1

*CAP
1 *334:B 0.000140148
2 *14 0.000476923
3 *14:3 3.63214e-05
4 *14:5 4.94862e-06
5 *14:6 5.65452e-06

*RES
1 *335:A2 *14:3 9.33197
2 *334:B *14:3 13.994
3 *14 *14:6 13.1901
4 *14:5 *14:6 4.00009
5 *14:4 *14:5 6.66603
6 *14:3 *14:4 6.66603
*END

*D_NET *15 0.000535401

*CONN
*P *15 I *C 0 13.6 *L 0
*I *333:A2 I *C 6.52 13.545 *L 0.000939 *D AND2_X1
*I *332:B I *C 7.525 13.895 *L 0.00235 *D XOR2_X1

*CAP
1 *333:A2 3.54489e-05
2 *332:B 7.12768e-06
3 *15 0.000122554
4 *15:7 0.000248332
5 *15:8 0.000106904
6 *15:10 1.50322e-05

*RES
1 *15:4 *15:5 10.2815
2 *15:7 *15:8 21.7877
3 *15:5 *15:6 0.665905
4 *15 *15:10 3.66996
5 *15:6 *15:8 1.80755
6 *15:9 *15:10 4.00009
7 *15:7 *15:9 6.66603
8 *15:3 *15:8 6.66603
9 *332:B *15:4 7.99984
10 *333:A2 *15:3 7.99984
*END

*D_NET *16 0.000557317

*CONN
*P *16 I *C 0 11.08 *L 0
*I *331:A2 I *C 6.52 12.495 *L 0.000939 *D AND2_X1
*I *330:B I *C 7.335 12.145 *L 0.00235 *D XOR2_X1

*CAP
1 *331:A2 1.6195e-05
2 *330:B 3.40897e-05
3 *16 4.7825e-05
4 *16:5 0.00030186
5 *16:6 5.92481e-05
6 *16:8 9.80959e-05

*RES
1 *16:3 *16:6 11.1852
2 *16:5 *16:7 9.18615
3 *16 *16:8 1.98996
4 *330:B *16:3 9.33211
5 *16:5 *16:6 25.7837
6 *16:7 *16:8 3.99998
7 *16:4 *16:6 6.66585
8 *331:A2 *16:4 7.99997
*END

*D_NET *17 0.000966229

*CONN
*P *17 I *C 0 8.56 *L 0
*I *329:A2 I *C 7.47 10.745 *L 0.000939 *D AND2_X1
*I *328:B I *C 8.285 11.095 *L 0.00235 *D XOR2_X1

*CAP
1 *328:B 0.000120425
2 *17 0.000177695
3 *17:6 5.25404e-05
4 *17:7 0.000189975
5 *17:8 0.000411624
6 *17:9 1.39752e-05

*RES
1 *17:3 *17:4 1.37348
2 *328:B *17:3 1.01197
3 *17 *17:9 5.90983
4 *17:4 *17:5 11.6155
5 *17:5 *17:6 1.99821
6 *17:7 *17:8 27.645
7 *17:6 *17:7 17.322
8 *17:8 *17:9 4.00021
9 *329:A2 *17:6 7.99999
*END

*D_NET *18 0.00126508

*CONN
*P *18 I *C 0 6.04 *L 0
*I *327:A2 I *C 10.7 9.695 *L 0.000939 *D AND2_X1
*I *326:B I *C 11.135 11.095 *L 0.00235 *D XOR2_X1

*CAP
1 *18 0.000200577
2 *18:4 0.000214313
3 *18:6 0.000284897
4 *18:7 3.10819e-05
5 *18:8 0.000534213

*RES
1 *18:3 *18:4 7.32609
2 *18 *18:9 5.90994
3 *326:B *18:3 10.7115
4 *18:8 *18:9 0.659934
5 *18:6 *18:7 6.15997
6 *18:6 *18:8 19.12
7 *18:5 *18:7 6.66586
8 *18:4 *18:5 6.66586
9 *327:A2 *18:4 8.00002
*END

*D_NET *19 0.00102439

*CONN
*P *19 I *C 0 3.52 *L 0
*I *325:A2 I *C 6.52 10.745 *L 0.000939 *D AND2_X1
*I *324:B I *C 6.575 9.345 *L 0.00235 *D XOR2_X1

*CAP
1 *325:A2 4.6008e-05
2 *19 0.000375003
3 *19:5 0.000154643
4 *19:7 0.000436436
5 *19:8 2.48872e-09
6 *19:9 1.2293e-05

*RES
1 *19:3 *19:4 0.903874
2 *19:3 *19:5 6.66001
3 *325:A2 *19:4 8.666
4 *19 *19:9 13.19
5 *19:7 *19:8 11.4801
6 *19:7 *19:9 3.99991
7 *19:6 *19:8 6.66605
8 *19:5 *19:6 6.66605
9 *324:B *19:5 8.00002
*END

*D_NET *20 0.00177779

*CONN
*P *20 I *C 0 1 *L 0
*I *323:A2 I *C 9.37 12.495 *L 0.000939 *D AND2_X1
*I *322:B I *C 9.615 11.095 *L 0.00235 *D XOR2_X1

*CAP
1 *323:A2 8.71075e-05
2 *322:B 0.000144016
3 *20 0.000505316
4 *20:3 0.000265652
5 *20:6 0.000148652
6 *20:7 0.000606329
7 *20:8 2.07245e-05

*RES
1 *322:B *20:3 18.6559
2 *20:3 *20:6 14.9908
3 *20 *20:8 16.5499
4 *20:4 *20:5 1.80774
5 *322:B *20:4 13.328
6 *323:A2 *20:5 8.66606
7 *20:6 *20:7 21.786
8 *20:7 *20:8 4.00011
*END

*D_NET *21 0.000834596

*CONN
*P *21 I *C 29.98 31.64 *L 0
*I *321:A2 I *C 27.11 24.745 *L 0.000939 *D AND2_X1
*I *320:B I *C 25.915 25.095 *L 0.00235 *D XOR2_X1

*CAP
1 *321:A2 1.52302e-05
2 *21 4.59454e-05
3 *21:5 0.000244524
4 *21:6 0.000235936
5 *21:8 0.000292959

*RES
1 *21:3 *21:6 12.993
2 *21 *21:7 5.55002
3 *320:B *21:3 9.33198
4 *21:5 *21:6 5.80379
5 *21:8 *21:9 1.68003
6 *21:7 *21:8 7.55995
7 *21:5 *21:9 12.5459
8 *21:4 *21:6 6.66601
9 *321:A2 *21:4 8.00008
*END

*D_NET *22 0.00102551

*CONN
*P *22 I *C 27.46 31.64 *L 0
*I *319:A2 I *C 25.78 21.945 *L 0.000939 *D AND2_X1
*I *318:B I *C 27.055 22.295 *L 0.00235 *D XOR2_X1

*CAP
1 *22 1.85767e-05
2 *22:5 0.000737387
3 *22:6 0.000269548

*RES
1 *22:3 *22:6 7.99782
2 *22:5 *22:7 25.706
3 *22 *22:7 4.40998
4 *22:4 *22:6 12.0889
5 *22:5 *22:6 4.04363
6 *318:B *22:3 8.00018
7 *319:A2 *22:4 8.00018
*END

*D_NET *23 0.000762201

*CONN
*P *23 I *C 24.94 31.64 *L 0
*I *317:A2 I *C 25.02 23.695 *L 0.000939 *D AND2_X1
*I *316:B I *C 25.955 23.345 *L 0.00235 *D XOR2_X1

*CAP
1 *316:B 6.11342e-05
2 *23 0.000100881
3 *23:4 5.75968e-06
4 *23:5 0.000594426

*RES
1 *23 *23:8 4.40989
2 *316:B *23:3 9.33218
3 *23:4 *23:5 32.634
4 *23:4 *23:6 7.76014
5 *23:3 *23:7 12.0889
6 *23:6 *23:8 8.90593
7 *23:5 *23:7 6.66613
8 *317:A2 *23:5 8.00015
*END

*D_NET *24 0.000524644

*CONN
*P *24 I *C 22.42 31.64 *L 0
*I *315:A2 I *C 24 24.745 *L 0.000939 *D AND2_X1
*I *314:B I *C 23.255 25.095 *L 0.00235 *D XOR2_X1

*CAP
1 *315:A2 0.00013098
2 *24 1.78143e-05
3 *24:4 0.00036945
4 *24:8 6.3985e-06

*RES
1 *24:3 *24:4 30.636
2 *24:5 *24:7 12.9928
3 *24 *24:8 4.4101
4 *24:4 *24:7 7.99791
5 *24:6 *24:8 6.6661
6 *24:3 *24:6 6.6661
7 *314:B *24:4 7.99978
8 *315:A2 *24:5 7.99978
*END

*D_NET *25 0.000730927

*CONN
*P *25 I *C 19.9 31.64 *L 0
*I *313:A2 I *C 21.6 24.745 *L 0.000939 *D AND2_X1
*I *312:B I *C 21.775 23.345 *L 0.00235 *D XOR2_X1

*CAP
1 *312:B 0.000102723
2 *25 0.000102474
3 *25:5 0.000525729

*RES
1 *25:3 *25:4 3.61545
2 *25 *25:7 4.97014
3 *312:B *25:3 12.662
4 *25:4 *25:5 1.33229
5 *25:5 *25:6 38.634
6 *25:6 *25:7 11.9464
7 *313:A2 *25:5 8.00021
*END

*D_NET *26 0.000779599

*CONN
*P *26 I *C 17.38 31.64 *L 0
*I *311:A2 I *C 18.68 24.745 *L 0.000939 *D AND2_X1
*I *310:B I *C 19.875 25.095 *L 0.00235 *D XOR2_X1

*CAP
1 *311:A2 1.60347e-05
2 *26 8.49986e-05
3 *26:6 0.000193163
4 *26:10 1.15272e-06
5 *26:11 0.000484255

*RES
1 *26:3 *26:6 12.993
2 *26:8 *26:10 0.560077
3 *26:9 *26:11 0.560077
4 *26:10 *26:11 10.6401
5 *26 *26:7 4.96992
6 *310:B *26:3 9.33198
7 *26:5 *26:6 3.71059
8 *26:7 *26:8 1.40009
9 *26:5 *26:9 8.06591
10 *26:4 *26:6 6.66601
11 *311:A2 *26:4 8.00008
*END

*D_NET *27 0.000650996

*CONN
*P *27 I *C 14.86 31.64 *L 0
*I *309:A2 I *C 16.85 24.745 *L 0.000939 *D AND2_X1
*I *308:B I *C 17.595 25.095 *L 0.00235 *D XOR2_X1

*CAP
1 *309:A2 6.96592e-06
2 *27 0.000108237
3 *27:7 0.000413507
4 *27:8 3.6855e-05
5 *27:9 8.54272e-05

*RES
1 *27:7 *27:9 2.66395
2 *27:10 *27:11 5.12003
3 *27:11 *27:12 0.56011
4 *27:5 *27:6 0.665988
5 *27 *27:12 1.53001
6 *27:5 *27:8 0.903991
7 *27:6 *27:9 3.61537
8 *27:7 *27:10 19.546
9 *27:3 *27:8 6.66615
10 *27:4 *27:9 6.66615
11 *308:B *27:3 7.99991
12 *309:A2 *27:4 7.99991
*END

*D_NET *28 0.000834423

*CONN
*P *28 I *C 12.34 31.64 *L 0
*I *307:A2 I *C 15.26 24.745 *L 0.000939 *D AND2_X1
*I *306:B I *C 15.315 23.345 *L 0.00235 *D XOR2_X1

*CAP
1 *306:B 0.000116756
2 *28 7.66035e-05
3 *28:6 0.000169067
4 *28:7 0.000472002

*RES
1 *28:3 *28:6 6.66007
2 *28 *28:8 5.53012
3 *28:4 *28:5 2.71146
4 *306:B *28:4 13.3281
5 *28:5 *28:6 0.665981
6 *28:3 *28:7 16.7512
7 *28:7 *28:8 17.306
8 *307:A2 *28:6 7.99996
*END

*D_NET *29 0.000572388

*CONN
*P *29 I *C 9.82 31.64 *L 0
*I *305:A2 I *C 10.96 24.745 *L 0.000939 *D AND2_X1
*I *304:B I *C 11.705 25.095 *L 0.00235 *D XOR2_X1

*CAP
1 *305:A2 2.54799e-05
2 *29 4.44727e-05
3 *29:3 0.000472369
4 *29:4 3.00641e-05

*RES
1 *305:A2 *29:3 9.33176
2 *29:3 *29:4 37.302
3 *304:B *29:3 12.5192
4 *29:4 *29:5 7.95035
5 *29 *29:5 5.53019
*END

*D_NET *30 0.00106141

*CONN
*P *30 I *C 7.3 31.64 *L 0
*I *303:A2 I *C 10.32 21.945 *L 0.000939 *D AND2_X1
*I *302:B I *C 10.375 23.345 *L 0.00235 *D XOR2_X1

*CAP
1 *303:A2 0.000164263
2 *30 1.67917e-05
3 *30:6 0.000880355

*RES
1 *30:3 *30:4 0.903934
2 *30:3 *30:5 1.99785
3 *303:A2 *30:4 11.996
4 *30 *30:7 4.41
5 *30:5 *30:6 20.7947
6 *30:6 *30:7 23.186
7 *302:B *30:5 7.99991
*END

*D_NET *31 0.00095617

*CONN
*P *31 I *C 4.78 31.64 *L 0
*I *301:A2 I *C 6.33 23.695 *L 0.000939 *D AND2_X1
*I *300:B I *C 7.145 23.345 *L 0.00235 *D XOR2_X1

*CAP
1 *301:A2 3.98621e-05
2 *300:B 9.23377e-05
3 *31 0.000161776
4 *31:5 0.000173352
5 *31:6 0.00048884

*RES
1 *31:3 *31:5 4.51927
2 *31:7 *31:9 0.56009
3 *31 *31:8 5.53012
4 *300:B *31:3 10.6639
5 *31:4 *31:5 3.99589
6 *31:4 *31:6 8.90175
7 *31:8 *31:9 3.0801
8 *301:A2 *31:5 9.33192
9 *31:6 *31:7 17.306
*END

*D_NET *32 0.000791668

*CONN
*P *32 I *C 2.26 31.64 *L 0
*I *299:B I *C 6.385 25.095 *L 0.00235 *D XOR2_X1

*CAP
1 *32 8.83263e-05
2 *32:2 2.12229e-05
3 *32:3 0.000682119

*RES
1 *32:2 *32:3 23.1257
2 *32:3 *32:4 19.5458
3 *32 *32:4 5.52983
4 *299:B *32:2 7.99992
*END

*D_NET *33 0.000517891

*CONN
*P *33 I *C 19.9 0 *L 0
*I *361:A1 I *C 20.77 6.895 *L 0.000895 *D AND2_X1
*I *360:A I *C 19.745 6.755 *L 0.00224 *D XOR2_X1

*CAP
1 *33 3.97316e-05
2 *33:4 0.000371867
3 *33:5 9.26334e-05
4 *33:7 1.36638e-05

*RES
1 *33:3 *33:5 0.665797
2 *33 *33:8 0.840183
3 *361:A1 *33:3 10.7118
4 *33:4 *33:5 29.304
5 *33:7 *33:8 4.55013
6 *33:6 *33:7 6.66602
7 *33:4 *33:6 6.66602
8 *360:A *33:5 7.99985
*END

*D_NET *34 0.000951153

*CONN
*P *34 I *C 17.38 0 *L 0
*I *359:A1 I *C 17.92 7.945 *L 0.000895 *D AND2_X1
*I *358:A I *C 18.225 9.555 *L 0.00224 *D XOR2_X1

*CAP
1 *34 1.04308e-05
2 *34:6 0.000189566
3 *34:7 0.000119959
4 *34:8 0.000631195

*RES
1 *34:3 *34:4 1.80759
2 *34:5 *34:7 9.425
3 *358:A *34:3 10.6638
4 *34:5 *34:6 3.32984
5 *34:4 *34:6 3.99607
6 *34:7 *34:8 21.226
7 *34 *34:8 3.99996
8 *359:A1 *34:6 7.99991
*END

*D_NET *35 0.000719661

*CONN
*P *35 I *C 14.86 0 *L 0
*I *357:A1 I *C 16.78 6.895 *L 0.000895 *D AND2_X1
*I *356:A I *C 17.655 6.755 *L 0.00224 *D XOR2_X1

*CAP
1 *35 4.78495e-05
2 *35:4 0.000174658
3 *35:5 0.000479703
4 *35:7 1.74504e-05

*RES
1 *35:3 *35:4 4.51913
2 *357:A1 *35:4 9.33174
3 *35 *35:7 1.53004
4 *356:A *35:3 8.66594
5 *35:4 *35:5 36.636
6 *35:5 *35:6 11.9938
7 *35:6 *35:7 3.9998
*END

*D_NET *36 0.000724976

*CONN
*P *36 I *C 12.34 0 *L 0
*I *355:A1 I *C 14.88 6.895 *L 0.000895 *D AND2_X1
*I *354:A I *C 15.755 6.755 *L 0.00224 *D XOR2_X1

*CAP
1 *355:A1 2.36772e-05
2 *36 3.55403e-05
3 *36:7 0.000139601
4 *36:8 3.49952e-05