*SPEF "IEEE 1481-1998"
*DESIGN "rp_adder_32bit"
*DATE "Wed Apr  6 15:44:30 2022"
*VENDOR "Cadence Design Systems, Inc."
*PROGRAM "Innovus"
*VERSION "20.10-p004_1"
*DESIGN_FLOW "PIN_CAP NONE" "NAME_SCOPE LOCAL"
*DIVIDER /
*DELIMITER :
*BUS_DELIMITER []
*T_UNIT 1 NS
*C_UNIT 1 PF
*R_UNIT 1 OHM
*L_UNIT 1 HENRY

// MMMC spef file for corner 'rc_worst'

*NAME_MAP

*1 FE_DBTN0_b_0
*2 a[31]
*3 a[30]
*4 a[29]
*5 a[28]
*6 a[27]
*7 a[26]
*8 a[25]
*9 a[24]
*10 a[23]
*11 a[22]
*12 a[21]
*13 a[20]
*14 a[19]
*15 a[18]
*16 a[17]
*17 a[16]
*18 a[15]
*19 a[14]
*20 a[13]
*21 a[12]
*22 a[11]
*23 a[10]
*24 a[9]
*25 a[8]
*26 a[7]
*27 a[6]
*28 a[5]
*29 a[4]
*30 a[3]
*31 a[2]
*32 a[1]
*33 a[0]
*34 b[31]
*35 b[30]
*36 b[29]
*37 b[28]
*38 b[27]
*39 b[26]
*40 b[25]
*41 b[24]
*42 b[23]
*43 b[22]
*44 b[21]
*45 b[20]
*46 b[19]
*47 b[18]
*48 b[17]
*49 b[16]
*50 b[15]
*51 b[14]
*52 b[13]
*53 b[12]
*54 b[11]
*55 b[10]
*56 b[9]
*57 b[8]
*58 b[7]
*59 b[6]
*60 b[5]
*61 b[4]
*62 b[3]
*63 b[2]
*64 b[1]
*65 b[0]
*66 sum[31]
*67 sum[30]
*68 sum[29]
*69 sum[28]
*70 sum[27]
*71 sum[26]
*72 sum[25]
*73 sum[24]
*74 sum[23]
*75 sum[22]
*76 sum[21]
*77 sum[20]
*78 sum[19]
*79 sum[18]
*80 sum[17]
*81 sum[16]
*82 sum[15]
*83 sum[14]
*84 sum[13]
*85 sum[12]
*86 sum[11]
*87 sum[10]
*88 sum[9]
*89 sum[8]
*90 sum[7]
*91 sum[6]
*92 sum[5]
*93 sum[4]
*94 sum[3]
*95 sum[2]
*96 sum[1]
*97 sum[0]
*98 cin
*99 cout
*100 n50
*101 n52
*102 n54
*103 n56
*104 n58
*105 n62
*106 n102
*107 n104
*108 n106
*109 n107
*110 n108
*111 n147
*112 n148
*113 n149
*114 n150
*115 n151
*116 n152
*117 n153
*118 n155
*119 n157
*120 n159
*121 n160
*122 n166
*123 n167
*124 n168
*125 n169
*126 n170
*127 n171
*128 n172
*129 n173
*130 n174
*131 n175
*132 n180
*133 n181
*134 n183
*135 n184
*136 n185
*137 n186
*138 n187
*139 n188
*140 n189
*141 n190
*142 n191
*143 n192
*144 n193
*145 n194
*146 n195
*147 n196
*148 n197
*149 n198
*150 n199
*151 n200
*152 n201
*153 n202
*154 n203
*155 n205
*156 n206
*157 n207
*158 n208
*159 n209
*160 n232
*161 n233
*162 n234
*163 n235
*164 n237
*165 n240
*166 n241
*167 n242
*168 n243
*169 n244
*170 n245
*171 n246
*172 n247
*173 n248
*174 n249
*175 n250
*176 n253
*177 n254
*178 n255
*179 n256
*180 n257
*181 n258
*182 n259
*183 n260
*184 n261
*185 n262
*186 n263
*187 n264
*188 n265
*189 n266
*190 n267
*191 n268
*192 n269
*193 n270
*194 n271
*195 n272
*196 n273
*197 n274
*198 n277
*199 n280
*200 n281
*201 n282
*202 n284
*203 n286
*204 n287
*205 n288
*206 n289
*207 n290
*208 n291
*209 n292
*210 n295
*211 n296
*212 n297
*213 n298
*214 n299
*215 n300
*216 n301
*217 n302
*218 n303
*219 n304
*220 n305
*221 n306
*222 n307
*223 n308
*224 n309
*225 n310
*226 n311
*227 n312
*228 n313
*229 n314
*230 n315
*231 n316
*232 n317
*233 n318
*234 n319
*235 n320
*236 n321
*237 n322
*238 n323
*239 n324
*240 n325
*241 n326
*242 n327
*243 n328
*244 n329
*245 n331
*246 n332
*247 n333
*248 n334
*249 n335
*250 n336
*251 n337
*252 n338
*253 n339
*254 n340
*255 n341
*256 n342
*257 n343
*258 n344
*259 n345
*260 n346
*261 n347
*262 n348
*263 n349
*264 n350
*265 n351
*266 n352
*267 n353
*268 n354
*269 n355
*270 n356
*271 n357
*272 n358
*273 n360
*274 n361
*275 n362
*276 n363
*277 n364
*278 n365
*279 n366
*280 n367
*281 n368
*282 n369
*283 n370
*284 n371
*285 n372
*286 n373
*287 n374
*288 n375
*289 n376
*290 n377
*291 n378
*292 n379
*293 n380
*294 n381
*295 n382
*296 n383
*297 n384
*298 n385
*299 n386
*300 n387
*301 n388
*302 n389
*303 n390
*304 n391
*305 n392
*306 n393
*307 n394
*308 FE_DBTC0_b_0
*309 U130
*310 U131
*311 U133
*312 U134
*313 U136
*314 U139
*315 U169
*316 U170
*317 U172
*318 U174
*319 U175
*320 U176
*321 U177
*322 U181
*323 U187
*324 U188
*325 U189
*326 U190
*327 U191
*328 U192
*329 U193
*330 U194
*331 U196
*332 U197
*333 U198
*334 U199
*335 U200
*336 U201
*337 U202
*338 U203
*339 U204
*340 U206
*341 U207
*342 U209
*343 U211
*344 U212
*345 U217
*346 U218
*347 U219
*348 U221
*349 U223
*350 U224
*351 U227
*352 U229
*353 U230
*354 U231
*355 U232
*356 U233
*357 U234
*358 U235
*359 U239
*360 U243
*361 U246
*362 U247
*363 U248
*364 U249
*365 U250
*366 U251
*367 U252
*368 U253
*369 U254
*370 U255
*371 U256
*372 U257
*373 U258
*374 U259
*375 U260
*376 U261
*377 U262
*378 U263
*379 U264
*380 U265
*381 U266
*382 U267
*383 U268
*384 U269
*385 U270
*386 U271
*387 U272
*388 U273
*389 U274
*390 U275
*391 U276
*392 U277
*393 U279
*394 U280
*395 U281
*396 U282
*397 U283
*398 U284
*399 U285
*400 U286
*401 U287
*402 U288
*403 U290
*404 U291
*405 U292
*406 U295
*407 U296
*408 U300
*409 U301
*410 U302
*411 U303
*412 U304
*413 U308
*414 U315
*415 U316
*416 U320
*417 U321
*418 U322
*419 U323
*420 U324
*421 U328
*422 U335
*423 U336
*424 U340
*425 U341
*426 U342
*427 U343
*428 U344
*429 U348
*430 U355
*431 U356
*432 U361
*433 U362
*434 U363
*435 U364
*436 U365
*437 U367
*438 U368
*439 U369
*440 U372
*441 U373
*442 U374
*443 U375
*444 U376
*445 U377
*446 U378
*447 U379
*448 U380
*449 U381
*450 U382
*451 U383
*452 U384
*453 U385
*454 U386
*455 U388
*456 U389
*457 U392
*458 U393
*459 U395
*460 U396
*461 U399
*462 U400
*463 U401
*464 U402
*465 U403
*466 U404
*467 U405
*468 U407
*469 U408
*470 U409
*471 U410
*472 U411
*473 U412
*474 U413
*475 U414
*476 U415
*477 U417
*478 U418
*479 U419
*480 U420
*481 U422
*482 U423
*483 U425
*484 U426
*485 U428
*486 U429
*487 U430
*488 U431
*489 U432
*490 U433
*491 U434
*492 U436
*493 U437
*494 U438
*495 U439
*496 U441
*497 U442
*498 U444
*499 U446
*500 U447
*501 U448
*502 U449
*503 U450
*504 U452
*505 U454
*506 U455
*507 U456
*508 U457
*509 U178
*510 U179
*511 U182
*512 U183
*513 U208
*514 U220
*515 U222
*516 U225
*517 U228
*518 U238
*519 U240
*520 U241
*521 U242
*522 U244
*523 U245
*524 U289
*525 U293
*526 U294
*527 U297
*528 U298
*529 U299
*530 U305
*531 U306
*532 U307
*533 U309
*534 U310
*535 U311
*536 U312
*537 U313
*538 U314
*539 U317
*540 U318
*541 U319
*542 U325
*543 U326
*544 U327
*545 U329
*546 U330
*547 U331
*548 U332
*549 U333


*PORTS

*2 I *C 18.64 0
*3 I *C 16.12 0
*4 I *C 13.6 0
*5 I *C 11.08 0
*6 I *C 8.56 0
*7 I *C 6.04 0
*8 I *C 3.52 0
*9 I *C 1 0
*10 I *C 0 28.72
*11 I *C 0 26.2
*12 I *C 0 23.68
*13 I *C 0 21.16
*14 I *C 0 18.64
*15 I *C 0 16.12
*16 I *C 0 13.6
*17 I *C 0 11.08
*18 I *C 0 8.56
*19 I *C 0 6.04
*20 I *C 0 3.52
*21 I *C 0 1
*22 I *C 29.98 33.04
*23 I *C 27.46 33.04
*24 I *C 24.94 33.04
*25 I *C 22.42 33.04
*26 I *C 19.9 33.04
*27 I *C 17.38 33.04
*28 I *C 14.86 33.04
*29 I *C 12.34 33.04
*30 I *C 9.82 33.04
*31 I *C 7.3 33.04
*32 I *C 4.78 33.04
*33 I *C 2.26 33.04
*34 I *C 19.9 0
*35 I *C 17.38 0
*36 I *C 14.86 0
*37 I *C 12.34 0
*38 I *C 9.82 0
*39 I *C 7.3 0
*40 I *C 4.78 0
*41 I *C 2.26 0
*42 I *C 0 29.98
*43 I *C 0 27.46
*44 I *C 0 24.94
*45 I *C 0 22.42
*46 I *C 0 19.9
*47 I *C 0 17.38
*48 I *C 0 14.86
*49 I *C 0 12.34
*50 I *C 0 9.82
*51 I *C 0 7.3
*52 I *C 0 4.78
*53 I *C 0 2.26
*54 I *C 31.24 33.04
*55 I *C 28.72 33.04
*56 I *C 26.2 33.04
*57 I *C 23.68 33.04
*58 I *C 21.16 33.04
*59 I *C 18.64 33.04
*60 I *C 16.12 33.04
*61 I *C 13.6 33.04
*62 I *C 11.08 33.04
*63 I *C 8.56 33.04
*64 I *C 6.04 33.04
*65 I *C 3.52 33.04
*98 I *C 1 33.04
*66 O *C 21.16 0
*67 O *C 22.42 0
*68 O *C 23.68 0
*69 O *C 24.94 0
*70 O *C 26.2 0
*71 O *C 27.46 0
*72 O *C 28.72 0
*73 O *C 29.98 0
*74 O *C 33.82 1
*75 O *C 33.82 2.26
*76 O *C 33.82 3.52
*77 O *C 33.82 4.78
*78 O *C 33.82 6.04
*79 O *C 33.82 7.3
*80 O *C 33.82 8.56
*81 O *C 33.82 9.82
*82 O *C 33.82 11.08
*83 O *C 33.82 12.34
*84 O *C 33.82 13.6
*85 O *C 33.82 14.86
*86 O *C 33.82 16.12
*87 O *C 33.82 17.38
*88 O *C 33.82 18.64
*89 O *C 33.82 19.9
*90 O *C 33.82 21.16
*91 O *C 33.82 22.42
*92 O *C 33.82 23.68
*93 O *C 33.82 24.94
*94 O *C 33.82 26.2
*95 O *C 33.82 27.46
*96 O *C 33.82 28.72
*97 O *C 33.82 29.98
*99 O *C 33.82 31.24


*D_NET *1 0.00021211

*CONN
*I *336:A1 I *C 7.605 24.745 *L 0.00157 *D NAND2_X1
*I *332:B2 I *C 7.73 23.695 *L 0.00153 *D OAI21_X1
*I *308:ZN O *C 6.5 24.37 *L 0 *D INV_X1

*CAP
1 *332:B2 0.000115268
2 *308:ZN 7.93324e-05
3 *1:3 1.75096e-05

*RES
1 *332:B2 *1:3 13.328
2 *1:4 *1:5 11.1853
3 *308:ZN *1:4 9.37349
4 *1:3 *1:5 6.66603
5 *336:A1 *1:3 7.99993
*END

*D_NET *2 0.000926083

*CONN
*P *2 I *C 18.64 0 *L 0
*I *515:A2 I *C 24.19 6.895 *L 0.00161 *D NAND2_X1
*I *508:B I *C 22.345 6.545 *L 0.00235 *D XOR2_X1
*I *392:A2 I *C 23.88 6.895 *L 0.00091 *D OR2_X1

*CAP
1 *515:A2 7.36406e-05
2 *2 5.63319e-05
3 *2:6 0.000132569
4 *2:10 0.000257801
5 *2:13 1.7883e-05
6 *2:15 0.000189302
7 *2:18 0.000198554

*RES
1 *2:4 *2:5 1.8077
2 *2:8 *2:10 15.318
3 *2:14 *2:15 0.665909
4 *2:6 *2:7 5.4231
5 *2:8 *2:9 0.90385
6 *515:A2 *2:4 9.33207
7 *2 *2:19 1.25001
8 *2:10 *2:11 0.90385
9 *2:11 *2:12 12.6539
10 *2:15 *2:16 11.75
11 *392:A2 *2:6 8.66593
12 *2:17 *2:18 9.13971
13 *2:12 *2:14 8.4738
14 *2:7 *2:13 0.665909
15 *2:5 *2:6 0.665909
16 *2:16 *2:17 0.665909
17 *2:9 *2:13 1.99796
18 *2:18 *2:19 3.99989
19 *508:B *2:13 8.00002
*END

*D_NET *3 0.0011954

*CONN
*P *3 I *C 16.12 0 *L 0
*I *542:A1 I *C 20.335 7.945 *L 0.00164 *D NOR2_X1
*I *453:B2 I *C 17.8 7.945 *L 0.00161 *D AOI21_X1
*I *377:B I *C 20.36 6.58 *L 0.00254 *D XNOR2_X1

*CAP
1 *377:B 3.01231e-05
2 *3 3.36974e-05
3 *3:6 0.000160627
4 *3:7 0.000328527
5 *3:15 0.000280096
6 *3:18 0.000267699
7 *3:19 9.46304e-05

*RES
1 *3:4 *3:5 0.903879
2 *3:9 *3:10 0.666005
3 *3:14 *3:16 1.39991
4 *3:7 *3:8 8.65806
5 *3:6 *3:9 9.37766
6 *3:8 *3:13 12.5172
7 *3 *3:19 0.68992
8 *3:10 *3:11 7.23082
9 *3:7 *3:12 8.47378
10 *3:11 *3:12 0.666005
11 *3:13 *3:15 8.06594
12 *542:A1 *3:4 9.33197
13 *3:16 *3:18 0.560093
14 *377:B *3:6 9.33197
15 *3:17 *3:18 6.72005
16 *3:15 *3:17 0.560093
17 *3:5 *3:6 4.66203
18 *453:B2 *3:7 13.994
19 *3:14 *3:19 4.00009
*END

*D_NET *4 0.000678204

*CONN
*P *4 I *C 13.6 0 *L 0
*I *451:A2 I *C 16.21 6.895 *L 0.00161 *D NAND2_X1
*I *406:A I *C 15.83 6.895 *L 0.00164 *D INV_X1

*CAP
1 *4 2.7373e-05
2 *4:4 0.000116773
3 *4:5 0.000271267
4 *4:7 0.00026279

*RES
1 *4:3 *4:4 1.80766
2 *406:A *4:4 9.33191
3 *4 *4:8 0.689922
4 *451:A2 *4:3 9.33191
5 *4:4 *4:5 20.646
6 *4:5 *4:6 15.4665
7 *4:6 *4:7 10.5861
8 *4:7 *4:8 3.99997
*END

*D_NET *5 0.00103102

*CONN
*P *5 I *C 11.08 0 *L 0
*I *450:A2 I *C 15.14 7.945 *L 0.00161 *D NAND2_X1
*I *381:B I *C 13.84 6.58 *L 0.00254 *D XNOR2_X1
*I *353:C2 I *C 15.14 9.695 *L 0.00151 *D OAI211_X1

*CAP
1 *5 0.000105157
2 *5:9 0.000143177
3 *5:10 0.000196051
4 *5:11 0.000158658
5 *5:12 0.000248664
6 *5:14 6.55629e-05
7 *5:15 0.000113748

*RES
1 *5:4 *5:5 5.42314
2 *5:5 *5:12 4.66192
3 *5:9 *5:10 17.316
4 *353:C2 *5:11 15.3259
5 *5:6 *5:7 0.903901
6 *5:8 *5:9 0.903901
7 *5:7 *5:12 1.99804
8 *5:4 *5:11 2.66388
9 *5 *5:16 1.25003
10 *5:15 *5:16 1.95999
11 *5:15 *5:17 3.3601
12 *5:10 *5:13 9.09212
13 *5:6 *5:8 5.99412
14 *5:14 *5:17 4.00004
15 *5:13 *5:14 6.66604
16 *450:A2 *5:11 8.00009
17 *381:B *5:12 8.00009
*END

*D_NET *6 0.000942049

*CONN
*P *6 I *C 8.56 0 *L 0
*I *525:A2 I *C 11.84 7.945 *L 0.00159 *D NOR2_X1
*I *408:A1 I *C 11.585 9.695 *L 0.00157 *D NAND2_X1
*I *375:A I *C 11.205 7.03 *L 0.00222 *D XNOR2_X1

*CAP
1 *525:A2 3.53241e-05
2 *408:A1 5.50485e-06
3 *6 5.7935e-05
4 *6:5 0.000103322
5 *6:6 8.8472e-05
6 *6:7 0.00013464
7 *6:8 0.000516849

*RES
1 *408:A1 *6:4 1.37351
2 *6:4 *6:5 15.3259
3 *6 *6:9 1.24988
4 *6:5 *6:6 5.32808
5 *6:6 *6:7 16.418
6 *525:A2 *6:5 12.1202
7 *6:7 *6:8 20.106
8 *6:8 *6:9 3.99997
9 *375:A *6:6 7.99994
*END

*D_NET *7 0.000843917

*CONN
*P *7 I *C 6.04 0 *L 0
*I *531:A1 I *C 9.305 7.945 *L 0.00164 *D NOR2_X1
*I *503:B I *C 8.855 6.545 *L 0.00235 *D XOR2_X1
*I *409:A2 I *C 8.87 7.945 *L 0.00161 *D NAND2_X1

*CAP
1 *531:A1 7.16151e-06
2 *409:A2 1.46438e-06
3 *7 5.4705e-05
4 *7:5 0.000151291
5 *7:6 0.000172302
6 *7:7 0.000456991

*RES
1 *531:A1 *7:4 1.37346
2 *7:4 *7:5 15.3261
3 *7:5 *7:6 17.5598
4 *7:6 *7:7 19.266
5 *7 *7:8 1.24999
6 *409:A2 *7:4 1.37346
7 *7:7 *7:8 4.00013
8 *503:B *7:5 7.99996
*END

*D_NET *8 0.00089753

*CONN
*P *8 I *C 3.52 0 *L 0
*I *410:A I *C 6.71 7.945 *L 0.00164 *D INV_X1
*I *383:B I *C 6.43 6.58 *L 0.00254 *D XNOR2_X1

*CAP
1 *8 3.54895e-05
2 *8:6 0.000208745
3 *8:7 0.000263057
4 *8:8 0.000390236

*RES
1 *8:3 *8:4 0.904002
2 *8:5 *8:7 19.1297
3 *8 *8:9 0.690042
4 *410:A *8:3 12.6619
5 *8:5 *8:6 5.32798
6 *8:4 *8:6 2.66414
7 *8:7 *8:8 17.026
8 *8:8 *8:9 4.00014
9 *383:B *8:6 8
*END

*D_NET *9 0.00128846

*CONN
*P *9 I *C 1 0 *L 0
*I *543:A2 I *C 6.78 10.745 *L 0.00091 *D OR2_X1
*I *413:A2 I *C 6.33 9.695 *L 0.00161 *D NAND2_X1
*I *379:B I *C 7.38 11.06 *L 0.00254 *D XNOR2_X1

*CAP
1 *413:A2 0.000171623
2 *9 7.69245e-05
3 *9:4 0.000221103
4 *9:6 0.000105335
5 *9:10 0.000220389
6 *9:11 3.45051e-05
7 *9:13 0.000458587

*RES
1 *9:11 *9:12 3.61547
2 *9:6 *9:7 0.666155
3 *9:4 *9:9 19.9878
4 *9:9 *9:10 10.3766
5 *9:10 *9:13 20.386
6 *413:A2 *9:4 26.0951
7 *9:7 *9:8 1.80774
8 *413:A2 *9:8 13.3279
9 *9 *9:14 1.81012
10 *9:13 *9:14 4.00011
11 *9:5 *9:11 6.66593
12 *9:6 *9:12 6.66593
13 *379:B *9:5 7.99983
14 *543:A2 *9:6 7.99983
*END

*D_NET *10 0.0016874

*CONN
*P *10 I *C 0 28.72 *L 0
*I *519:A1 I *C 6.845 16.345 *L 0.00164 *D NOR2_X1
*I *513:B I *C 6.62 14.98 *L 0.00254 *D XNOR2_X1
*I *415:A2 I *C 6.78 18.095 *L 0.00161 *D NAND2_X1

*CAP
1 *519:A1 6.39426e-05
2 *513:B 5.59084e-05
3 *10 0.000439752
4 *10:6 8.60301e-05
5 *10:9 0.000241404
6 *10:10 2.87245e-05
7 *10:11 6.7176e-07
8 *10:12 0.000586984
9 *10:17 0.000183973

*RES
1 *10:6 *10:10 4.66197
2 *519:A1 *10:5 10.6641
3 *10:12 *10:15 14.56
4 *10:8 *10:9 9.32395
5 *10 *10:18 13.1899
6 *10:15 *10:16 0.560085
7 *10:7 *10:9 1.80778
8 *10:13 *10:18 4.46002
9 *10:6 *10:8 1.80778
10 *10:12 *10:14 0.560085
11 *10:13 *10:14 1.4001
12 *10:5 *10:6 0.903779
13 *10:16 *10:17 4.75995
14 *513:B *10:7 8.66611
15 *10:4 *10:10 0.66606
16 *10:11 *10:17 6.66593
17 *10:4 *10:11 6.66593
18 *415:A2 *10:10 8.00005
*END

*D_NET *11 0.00129633

*CONN
*P *11 I *C 0 26.2 *L 0
*I *495:B I *C 7.905 19.495 *L 0.00235 *D XOR2_X1
*I *449:C2 I *C 7.09 20.895 *L 0.00151 *D OAI211_X1
*I *414:A2 I *C 7.09 19.145 *L 0.00161 *D NAND2_X1

*CAP
1 *414:A2 3.14852e-05
2 *11 0.000395325
3 *11:5 0.000200576
4 *11:7 4.19311e-05
5 *11:10 2.17321e-05
6 *11:11 0.000605276

*RES
1 *11:4 *11:7 1.33197
2 *11:10 *11:12 4.45991
3 *11:5 *11:7 5.99403
4 *11:4 *11:8 11.1853
5 *11:10 *11:11 9.80008
6 *414:A2 *11:5 9.33203
7 *11:6 *11:9 11.1853
8 *11:8 *11:11 7.22607
9 *11 *11:12 11.51
10 *11:5 *11:9 6.66599
11 *495:B *11:6 8.00006
12 *449:C2 *11:7 8.00006
*END

*D_NET *12 0.00076104

*CONN
*P *12 I *C 0 23.68 *L 0
*I *527:A2 I *C 6.78 20.895 *L 0.00159 *D NOR2_X1
*I *493:A I *C 6.825 22.085 *L 0.00224 *D XOR2_X1
*I *416:A1 I *C 6.265 21.945 *L 0.00157 *D NAND2_X1

*CAP
1 *527:A2 0.000162249
2 *416:A1 9.25643e-05
3 *12 4.96755e-05
4 *12:7 4.58654e-05
5 *12:8 0.000410683

*RES
1 *527:A2 *12:4 1.37378
2 *12:4 *12:7 14.66
3 *12:5 *12:6 3.6152
4 *12:5 *12:7 0.666331
5 *12:8 *12:9 11.994
6 *12:9 *12:10 7.22614
7 *12 *12:11 1.42978
8 *12:10 *12:11 4.46016
9 *416:A1 *12:8 46.456
10 *416:A1 *12:6 9.33217
11 *493:A *12:7 8.00022
*END

*D_NET *13 0.00110037

*CONN
*P *13 I *C 0 21.16 *L 0
*I *533:A1 I *C 11.595 21.945 *L 0.00164 *D NOR2_X1
*I *417:A2 I *C 10.51 21.945 *L 0.00161 *D NAND2_X1
*I *385:B I *C 11.37 20.58 *L 0.00254 *D XNOR2_X1

*CAP
1 *385:B 0.000128343
2 *13 4.65195e-05
3 *13:4 4.32228e-05
4 *13:9 0.000214213
5 *13:11 0.000169049
6 *13:12 0.000327848
7 *13:13 0.000109663
8 *13:15 6.15125e-05

*RES
1 *13:4 *13:5 3.99587
2 *13:9 *13:10 9.03869
3 *13 *13:15 1.42993
4 *13:8 *13:9 0.665978
5 *13:8 *13:13 15.3655
6 *13:10 *13:11 0.665978
7 *13:11 *13:12 21.6926
8 *533:A1 *13:4 9.99794
9 *385:B *13:6 9.33196
10 *13:12 *13:14 7.50615
11 *13:7 *13:13 8.664
12 *13:5 *13:6 0.903969
13 *13:4 *13:13 12.0892
14 *13:14 *13:15 3.99984
15 *417:A2 *13:7 8.00001
*END

*D_NET *14 0.00100063

*CONN
*P *14 I *C 0 18.64 *L 0
*I *489:B I *C 10.755 16.695 *L 0.00235 *D XOR2_X1
*I *418:A I *C 10.13 19.145 *L 0.00164 *D INV_X1

*CAP
1 *489:B 0.000267673
2 *14 4.69543e-05
3 *14:6 5.58003e-05
4 *14:8 0.000587355
5 *14:10 4.28495e-05

*RES
1 *14:3 *14:4 1.37309
2 *489:B *14:3 1.01232
3 *14:5 *14:7 2.71118
4 *14:4 *14:5 8.66614
5 *14 *14:10 1.42984
6 *14:6 *14:7 8.65837
7 *418:A *14:6 9.99802
8 *14:6 *14:8 50.955
9 *14:9 *14:10 4.0003
10 *14:8 *14:9 6.66638
*END

*D_NET *15 0.000932651

*CONN
*P *15 I *C 0 16.12 *L 0
*I *544:A2 I *C 9.94 16.345 *L 0.00091 *D OR2_X1
*I *484:B I *C 9.385 16.695 *L 0.00235 *D XOR2_X1
*I *421:A2 I *C 9.25 18.095 *L 0.00161 *D NAND2_X1

*CAP
1 *484:B 2.33388e-06
2 *15 0.000577172
3 *15:4 0.000185495
4 *15:5 4.53653e-05
5 *15:6 4.61579e-05
6 *15:8 6.24686e-05
7 *15:9 4.77344e-06
8 *15:10 8.87754e-06

*RES
1 *544:A2 *15:5 9.33197
2 *15:4 *15:7 13.328
3 *15:5 *15:8 12.0892
4 *484:B *15:4 1.01194
5 *484:B *15:6 9.33197
6 *15 *15:10 17.11
7 *15:9 *15:10 3.99997
8 *15:8 *15:9 6.6661
9 *15:6 *15:8 6.6661
10 *421:A2 *15:7 7.99995
*END

*D_NET *16 0.000851293

*CONN
*P *16 I *C 0 13.6 *L 0
*I *521:A1 I *C 10.075 15.295 *L 0.00164 *D NOR2_X1
*I *514:B I *C 8.52 13.86 *L 0.00254 *D XNOR2_X1
*I *423:A2 I *C 10.2 13.545 *L 0.00161 *D NAND2_X1

*CAP
1 *514:B 1.5562e-05
2 *423:A2 3.45955e-05
3 *16 0.000376052
4 *16:4 0.00014058
5 *16:7 9.10535e-05
6 *16:8 0.000187065
7 *16:9 6.3866e-06

*RES
1 *423:A2 *16:4 9.33197
2 *16:4 *16:7 13.8968
3 *16:6 *16:8 7.22591
4 *16 *16:9 12.0701
5 *521:A1 *16:4 13.994
6 *16:6 *16:7 11.75
7 *16:8 *16:9 4.00009
8 *16:5 *16:7 6.66603
9 *514:B *16:5 7.99996
*END

*D_NET *17 0.00110907

*CONN
*P *17 I *C 0 11.08 *L 0
*I *480:B I *C 12.085 12.145 *L 0.00235 *D XOR2_X1
*I *448:C2 I *C 12.6 13.545 *L 0.00151 *D OAI211_X1
*I *422:A2 I *C 10.58 12.495 *L 0.00161 *D NAND2_X1

*CAP
1 *448:C2 0.000135108
2 *17 1.08459e-05
3 *17:4 5.72655e-05
4 *17:7 0.00066992
5 *17:8 0.000202034
6 *17:9 1.61922e-05
7 *17:10 1.77153e-05

*RES
1 *480:B *17:4 11.3301
2 *17:6 *17:8 11.3278
3 *448:C2 *17:5 13.9937
4 *17:4 *17:8 14.801
5 *17:7 *17:8 48.7607
6 *17:7 *17:9 7.22601
7 *17 *17:10 0.31026
8 *17:9 *17:10 3.9999
9 *480:B *17:5 7.9998
10 *422:A2 *17:6 7.9998
*END

*D_NET *18 0.00155453

*CONN
*P *18 I *C 0 8.56 *L 0
*I *529:A2 I *C 13.81 12.495 *L 0.00159 *D NOR2_X1
*I *478:A I *C 13.855 10.885 *L 0.00224 *D XOR2_X1
*I *424:A1 I *C 14.445 12.495 *L 0.00157 *D NAND2_X1

*CAP
1 *529:A2 8.47756e-06
2 *18 1.1149e-05
3 *18:7 0.000244182
4 *18:8 5.31353e-05
5 *18:9 7.61436e-05
6 *18:10 0.00101198
7 *18:13 0.000149461

*RES
1 *18:4 *18:5 3.03584
2 *424:A1 *18:6 10.6643
3 *18:4 *18:7 8.66554
4 *18:8 *18:10 71.6961
5 *18:10 *18:12 10.3065
6 *18 *18:13 0.309601
7 *18:8 *18:9 2.66388
8 *18:6 *18:11 9.37773
9 *529:A2 *18:5 1.37296
10 *18:7 *18:9 3.99637
11 *18:12 *18:13 3.99965
12 *18:7 *18:11 6.66572
13 *478:A *18:9 8.00039
*END

*D_NET *19 0.00167113

*CONN
*P *19 I *C 0 6.04 *L 0
*I *535:A1 I *C 17.105 10.745 *L 0.00164 *D NOR2_X1
*I *475:B I *C 16.075 9.345 *L 0.00235 *D XOR2_X1
*I *425:A2 I *C 15.71 10.745 *L 0.00161 *D NAND2_X1

*CAP
1 *425:A2 0.000102538
2 *19 4.34271e-05
3 *19:6 0.000132022
4 *19:8 0.000120761
5 *19:9 0.000392577
6 *19:12 0.000222232
7 *19:13 0.000428807
8 *19:14 0.000228763

*RES
1 *19:9 *19:10 0.665809
2 *19 *19:15 1.43006
3 *535:A1 *19:5 9.33192
4 *19:6 *19:7 0.903977
5 *19:8 *19:9 34.6856
6 *19:12 *19:13 32.5389
7 *19:10 *19:11 12.6541
8 *19:11 *19:12 0.665809
9 *19:4 *19:7 9.33192
10 *425:A2 *19:4 2.74686
11 *19:13 *19:14 13.1061
12 *19:6 *19:8 5.99387
13 *19:5 *19:6 4.51935
14 *19:14 *19:15 4.00015
15 *475:B *19:8 7.99977
*END

*D_NET *20 0.00226859

*CONN
*P *20 I *C 0 3.52 *L 0
*I *426:A I *C 21.22 12.495 *L 0.00164 *D INV_X1
*I *315:B I *C 21.585 11.095 *L 0.00235 *D XOR2_X1

*CAP
1 *426:A 5.50533e-05
2 *20 0.000442983
3 *20:5 0.000111724
4 *20:9 0.000477427
5 *20:12 0.000302163
6 *20:15 0.000149635
7 *20:16 0.000468911
8 *20:18 0.000260696

*RES
1 *20:8 *20:9 0.55994
2 *20:9 *20:11 4.1999
3 *20:7 *20:14 5.67992
4 *426:A *20:3 6.86717
5 *20 *20:18 14.8699
6 *20:7 *20:8 1.39997
7 *20:4 *20:6 11.9941
8 *20:3 *20:5 13.9939
9 *20:6 *20:10 8.06595
10 *20:14 *20:15 0.55994
11 *20:10 *20:12 1.12011
12 *20:11 *20:13 0.55994
13 *20:16 *20:17 0.55994
14 *20:17 *20:18 10.0801
15 *20:12 *20:13 5.32001
16 *20:4 *20:5 6.65999
17 *20:15 *20:16 15.12
18 *315:B *20:5 7.99997
*END

*D_NET *21 0.00280154

*CONN
*P *21 I *C 0 1 *L 0
*I *548:A2 I *C 22.86 15.295 *L 0.00091 *D OR2_X1
*I *429:A2 I *C 21.53 13.545 *L 0.00161 *D NAND2_X1
*I *316:B I *C 24.435 13.895 *L 0.00235 *D XOR2_X1

*CAP
1 *316:B 4.0047e-05
2 *21 0.000309796
3 *21:7 0.000395427
4 *21:10 0.000220178
5 *21:12 0.000253818
6 *21:14 0.000125424
7 *21:15 0.000141114
8 *21:16 0.000309649
9 *21:17 0.000118429
10 *21:18 0.00087658
11 *21:19 1.10885e-05

*RES
1 *21:9 *21:10 0.665902
2 *21:4 *21:16 16.6084
3 *21:14 *21:15 11.2267
4 *316:B *21:4 9.33218
5 *21:7 *21:17 28.0195
6 *21:7 *21:8 0.665902
7 *21:15 *21:18 31.306
8 *21:8 *21:9 12.6541
9 *21:12 *21:13 8.13461
10 *21 *21:19 10.3898
11 *21:10 *21:11 17.1735
12 *21:11 *21:12 0.665902
13 *21:6 *21:16 15.3239
14 *21:13 *21:14 0.665902
15 *21:5 *21:17 7.99799
16 *21:16 *21:17 6.32703
17 *21:18 *21:19 4.00019
18 *429:A2 *21:5 7.9999
19 *548:A2 *21:6 7.9999
*END

*D_NET *22 0.00161709

*CONN
*P *22 I *C 29.98 33.04 *L 0
*I *523:A1 I *C 26.415 18.095 *L 0.00164 *D NOR2_X1
*I *431:A2 I *C 26.35 19.145 *L 0.00161 *D NAND2_X1
*I *317:B I *C 27.435 17.745 *L 0.00235 *D XOR2_X1

*CAP
1 *317:B 2.3802e-05
2 *22 0.000124138
3 *22:7 0.000165111
4 *22:9 0.000228303
5 *22:13 0.00040363
6 *22:15 0.000167947
7 *22:17 7.38487e-05
8 *22:19 0.000430308

*RES
1 *22:9 *22:11 0.903941
2 *22:10 *22:12 0.903941
3 *22:4 *22:5 1.99812
4 *431:A2 *22:15 8.66595
5 *22:14 *22:16 0.903941
6 *22:20 *22:21 1.39997
7 *22:6 *22:9 4.66208
8 *22:7 *22:8 11.322
9 *22:5 *22:7 0.903941
10 *317:B *22:17 9.80769
11 *22:18 *22:23 8.06596
12 *22:11 *22:12 8.65802
13 *22:15 *22:16 2.66396
14 *22:13 *22:15 5.42304
15 *22:19 *22:22 5.31999
16 *22:19 *22:21 0.560047
17 *22:4 *22:18 14.6579
18 *22:6 *22:8 0.903941
19 *22:10 *22:13 19.98
20 *22:22 *22:23 0.560047
21 *22:14 *22:17 2.66396
22 *22 *22:20 5.54986
23 *523:A1 *22:17 8.00011
*END

*D_NET *23 0.0012458

*CONN
*P *23 I *C 27.46 33.04 *L 0
*I *430:A2 I *C 25.71 20.895 *L 0.00161 *D NAND2_X1
*I *321:A2 I *C 25.4 20.895 *L 0.00091 *D OR2_X1
*I *318:B I *C 27.245 20.545 *L 0.00235 *D XOR2_X1

*CAP
1 *430:A2 2.28902e-05
2 *321:A2 7.82001e-05
3 *318:B 3.68308e-05
4 *23 1.54817e-05
5 *23:5 9.27769e-05
6 *23:6 7.30537e-05
7 *23:9 0.000926567

*RES
1 *318:B *23:5 9.33202
2 *23:4 *23:5 4.662
3 *430:A2 *23:6 9.33202
4 *23 *23:9 4.41014
5 *23:6 *23:7 1.80757
6 *23:5 *23:6 4.51941
7 *321:A2 *23:7 9.33202
8 *23:4 *23:8 10.2815
9 *23:10 *23:11 0.56012
10 *23:9 *23:10 21
11 *23:8 *23:11 7.50586
*END

*D_NET *24 0.000841531

*CONN
*P *24 I *C 24.94 33.04 *L 0
*I *432:A1 I *C 25.455 24.745 *L 0.00157 *D NAND2_X1
*I *331:C1 I *C 25.44 23.695 *L 0.00156 *D OAI211_X1
*I *309:B I *C 26.525 23.345 *L 0.00235 *D XOR2_X1

*CAP
1 *309:B 7.74333e-05
2 *24 5.54812e-05
3 *24:7 5.2267e-07
4 *24:8 0.000393715
5 *24:9 0.00010922
6 *24:10 0.000205157

*RES
1 *24:6 *24:8 0.903636
2 *24 *24:13 4.4098
3 *24:5 *24:7 0.903636
4 *309:B *24:4 9.33178
5 *24:5 *24:11 8.66412
6 *24:9 *24:10 5.99391
7 *24:11 *24:13 7.37955
8 *24:4 *24:12 12.993
9 *24:6 *24:9 6.6602
10 *24:7 *24:8 29.97
11 *24:10 *24:12 6.66615
12 *432:A1 *24:9 8.00011
13 *331:C1 *24:10 8.00011
*END

*D_NET *25 0.000688457

*CONN
*P *25 I *C 22.42 33.04 *L 0
*I *446:A I *C 23.24 26.495 *L 0.00164 *D INV_X1
*I *433:A2 I *C 23.43 24.745 *L 0.00161 *D NAND2_X1
*I *310:B I *C 22.875 25.095 *L 0.00235 *D XOR2_X1

*CAP
1 *446:A 1.14105e-05
2 *433:A2 0.000116016
3 *310:B 4.97373e-05
4 *25 2.73031e-05
5 *25:8 7.96832e-05
6 *25:10 0.000390083
7 *25:12 1.4226e-05

*RES
1 *433:A2 *25:4 1.37367
2 *25:4 *25:6 8.66613
3 *25:8 *25:10 3.99586
4 *446:A *25:10 9.3735
5 *25:8 *25:9 1.80783
6 *25:6 *25:7 0.903677
7 *310:B *25:9 9.99776
8 *25:7 *25:8 2.66422
9 *25:5 *25:10 31.302
10 *25 *25:12 4.97022
11 *25:11 *25:12 6.66581
12 *25:5 *25:11 6.66581
*END

*D_NET *26 0.000972255

*CONN
*P *26 I *C 19.9 33.04 *L 0
*I *547:A2 I *C 21.34 24.745 *L 0.00159 *D NOR2_X1
*I *346:A2 I *C 21.53 26.495 *L 0.000939 *D AND2_X1
*I *311:B I *C 21.165 23.345 *L 0.00235 *D XOR2_X1

*CAP
1 *547:A2 0.000174971
2 *311:B 0.00027219
3 *26 0.000117329
4 *26:10 0.000407763

*RES
1 *26:4 *26:5 1.01212
2 *26:5 *26:9 13.3278
3 *26:11 *26:12 10.6142
4 *26:6 *26:7 0.903779
5 *26:8 *26:9 0.903779
6 *26:10 *26:11 37.968
7 *547:A2 *26:7 8.66585
8 *311:B *26:8 8.66585
9 *547:A2 *26:4 6.86698
10 *26:6 *26:10 6.66016
11 *26 *26:12 5.52985
12 *346:A2 *26:10 8.00018
*END

*D_NET *27 0.000639188

*CONN
*P *27 I *C 17.38 33.04 *L 0
*I *435:A I *C 18.87 26.495 *L 0.00164 *D INV_X1
*I *312:B I *C 20.065 26.145 *L 0.00235 *D XOR2_X1

*CAP
1 *27 8.89337e-05
2 *27:4 0.000550252

*RES
1 *27:5 *27:7 11.2804
2 *27:3 *27:6 12.993
3 *27 *27:7 4.97021
4 *27:4 *27:6 7.99787
5 *27:4 *27:5 37.968
6 *312:B *27:3 8.00018
7 *435:A *27:4 8.00018
*END

*D_NET *28 0.0011931

*CONN
*P *28 I *C 14.86 33.04 *L 0
*I *517:A1 I *C 15.955 21.945 *L 0.00164 *D NOR2_X1
*I *443:A1 I *C 16.725 21.945 *L 0.00157 *D NAND2_X1
*I *313:B I *C 15.085 23.345 *L 0.00235 *D XOR2_X1

*CAP
1 *517:A1 0.000139015
2 *313:B 4.98925e-05
3 *28:11 0.000264931
4 *28:17 3.96183e-06
5 *28:18 0.000621145
6 *28:19 0.000114154

*RES
1 *28:9 *28:11 0.666077
2 *313:B *28:5 1.01193
3 *28:14 *28:15 1.40009
4 *517:A1 *28:4 4.12036
5 *28:8 *28:9 0.903839
6 *443:A1 *28:6 9.33191
7 *28 *28:19 0.559906
8 *28:6 *28:13 11.1853
9 *28:4 *28:8 12.6621
10 *28:7 *28:12 7.85535
11 *28:12 *28:16 8.06598
12 *28:7 *28:11 5.32797
13 *28:16 *28:18 0.559906
14 *28:10 *28:13 7.99805
15 *28:17 *28:18 14
16 *28:15 *28:17 0.559906
17 *28:5 *28:11 9.37335
18 *28:14 *28:19 4.00009
19 *517:A1 *28:10 7.99997
*END

*D_NET *29 0.00106456

*CONN
*P *29 I *C 12.34 33.04 *L 0
*I *538:A1 I *C 16.725 26.495 *L 0.00157 *D NAND2_X1
*I *510:B I *C 17.405 26.145 *L 0.00235 *D XOR2_X1
*I *360:A2 I *C 16.28 26.495 *L 0.00159 *D NOR2_X1

*CAP
1 *510:B 0.000115018
2 *29 4.5826e-05
3 *29:7 2.05512e-05
4 *29:9 7.99405e-05
5 *29:11 0.000375683
6 *29:12 9.56076e-05
7 *29:17 0.000331944

*RES
1 *29:4 *29:5 1.37337
2 *29:9 *29:10 7.95036
3 *29:14 *29:15 0.560078
4 *29:7 *29:8 2.71157
5 *29:6 *29:7 0.666074
6 *29:11 *29:14 8.68007
7 *29:8 *29:9 1.33198
8 *29:12 *29:17 10.72
9 *29:12 *29:13 1.40003
10 *538:A1 *29:7 9.33207
11 *29 *29:16 4.40996
12 *29:10 *29:15 8.06601
13 *510:B *29:4 1.01203
14 *29:11 *29:13 0.560078
15 *29:5 *29:6 10.7117
16 *29:16 *29:17 5.67995
17 *360:A2 *29:9 7.99992
*END

*D_NET *30 0.00101552

*CONN
*P *30 I *C 9.82 33.04 *L 0
*I *440:A1 I *C 13.685 24.745 *L 0.00157 *D NAND2_X1
*I *340:C1 I *C 14.99 24.745 *L 0.00156 *D OAI211_X1
*I *314:B I *C 13.225 26.145 *L 0.00235 *D XOR2_X1

*CAP
1 *340:C1 1.73597e-05
2 *30 7.6601e-05
3 *30:5 0.000175751
4 *30:6 0.000219417
5 *30:9 3.2829e-05
6 *30:12 0.000493565

*RES
1 *30:4 *30:5 11.322
2 *30:11 *30:12 2.18835
3 *30:7 *30:13 11.1854
4 *30:6 *30:13 7.5698
5 *30:5 *30:6 5.99399
6 *30:4 *30:8 8.4737
7 *30:9 *30:10 10.8464
8 *30:8 *30:9 0.665946
9 *30:10 *30:11 0.665946
10 *30:12 *30:14 15.626
11 *30 *30:14 5.53
12 *314:B *30:5 7.99993
13 *440:A1 *30:6 7.99993
14 *340:C1 *30:7 7.99993
*END

*D_NET *31 0.000912797

*CONN
*P *31 I *C 7.3 33.04 *L 0
*I *441:A2 I *C 10.39 26.495 *L 0.00161 *D NAND2_X1
*I *389:B I *C 8.9 26.18 *L 0.00254 *D XNOR2_X1
*I *322:A1 I *C 10.455 24.745 *L 0.00164 *D NOR2_X1

*CAP
1 *389:B 6.49801e-05
2 *322:A1 6.74419e-05
3 *31 9.60139e-05
4 *31:7 0.000295481
5 *31:11 0.000154199
6 *31:12 0.000153933
7 *31:13 8.07427e-05

*RES
1 *31:8 *31:10 0.90384
2 *31:9 *31:11 0.90384
3 *31:4 *31:12 1.99801
4 *31 *31:15 4.97
5 *322:A1 *31:5 10.6641
6 *31:4 *31:14 12.9929
7 *31:8 *31:13 13.326
8 *31:10 *31:11 11.3221
9 *31:6 *31:12 4.66194
10 *31:13 *31:15 12.2318
11 *31:7 *31:9 11.3221
12 *389:B *31:7 11.33
13 *31:5 *31:6 0.90384
14 *31:7 *31:14 6.66605
15 *441:A2 *31:12 7.99995
*END

*D_NET *32 0.00110808

*CONN
*P *32 I *C 4.78 33.04 *L 0
*I *549:A2 I *C 10.13 23.695 *L 0.00159 *D NOR2_X1
*I *391:B I *C 9.28 25.06 *L 0.00254 *D XNOR2_X1
*I *338:B2 I *C 8.87 23.695 *L 0.00158 *D AOI22_X1

*CAP
1 *549:A2 3.76326e-05
2 *338:B2 2.91444e-05
3 *32 1.75459e-05
4 *32:5 0.000144776
5 *32:6 0.000308359
6 *32:10 0.000103563
7 *32:13 8.20173e-05
8 *32:15 0.000141925
9 *32:19 0.000243111

*RES
1 *32:4 *32:5 1.01205
2 *32:8 *32:10 0.903856
3 *32:9 *32:10 8.65798
4 *338:B2 *32:5 4.12042
5 *32:9 *32:14 19.32
6 *32:14 *32:15 0.665953
7 *32:6 *32:7 0.451928
8 *32 *32:19 4.40991
9 *32:12 *32:13 1.99786
10 *32:11 *32:12 0.451928
11 *32:7 *32:11 7.32607
12 *32:15 *32:16 6.32699
13 *549:A2 *32:5 5.49359
14 *32:6 *32:8 11.3221
15 *32:17 *32:18 1.71249
16 *32:18 *32:19 10.0261
17 *32:4 *32:13 14.6601
18 *32:16 *32:17 0.665953
19 *391:B *32:13 7.99998
*END

*D_NET *33 0.000947197

*CONN
*P *33 I *C 2.26 33.04 *L 0
*I *337:A I *C 6.9 24.745 *L 0.00164 *D INV_X1
*I *319:A I *C 7.585 26.355 *L 0.00224 *D XOR2_X1

*CAP
1 *337:A 0.000219509
2 *319:A 1.66326e-05
3 *33 3.82247e-05
4 *33:4 0.000199736
5 *33:6 0.000473098

*RES
1 *33:3 *33:4 15.9838
2 *33:3 *33:6 28.5489
3 *33 *33:7 5.53022
4 *33:4 *33:5 3.61522
5 *319:A *33:4 8.66582
6 *337:A *33:5 15.326
7 *33:6 *33:7 13.1061
*END

*D_NET *34 0.000944698

*CONN
*P *34 I *C 19.9 0 *L 0
*I *515:A1 I *C 24.515 6.895 *L 0.00157 *D NAND2_X1
*I *508:A I *C 22.215 6.755 *L 0.00224 *D XOR2_X1
*I *392:A1 I *C 24.07 6.895 *L 0.000905 *D OR2_X1

*CAP
1 *392:A1 3.22204e-05
2 *34 0.000290969
3 *34:4 0.000156098
4 *34:5 0.000239972
5 *34:8 0.000155383
6 *34:9 7.00572e-05

*RES
1 *34:4 *34:5 16.65
2 *34:9 *34:10 8.13478
3 *34:5 *34:8 16.8939
4 *34 *34:11 4.55008
5 *34:6 *34:9 9.37754
6 *34:8 *34:11 12.8261
7 *34:7 *34:9 6.66594
8 *34:4 *34:10 6.66594
9 *515:A1 *34:6 7.99996
10 *392:A1 *34:7 7.99996
11 *508:A *34:4 7.99996
*END

*D_NET *35 0.0011036

*CONN
*P *35 I *C 17.38 0 *L 0
*I *542:A2 I *C 20.01 7.945 *L 0.00159 *D NOR2_X1
*I *453:B1 I *C 17.46 7.945 *L 0.0016 *D AOI21_X1
*I *377:A I *C 20.525 7.03 *L 0.00222 *D XNOR2_X1

*CAP
1 *542:A2 8.96688e-06
2 *35 4.11043e-05
3 *35:7 1.66813e-05
4 *35:8 2.7427e-05
5 *35:9 0.000137789
6 *35:10 0.000276848
7 *35:11 0.000594782

*RES
1 *35:5 *35:9 11.3281